geometry optimzed in LAMMPS
_audit_creation_date              2020-12-01 
_audit_creation_method            'lammps2cif' 
_symmetry_space_group_name_H-M    'P1' 
_symmetry_Int_Tables_number       1 
_symmetry_cell_setting            triclinic 
loop_ 
_symmetry_equiv_pos_as_xyz 
  x,y,z 
_cell_length_a                    51.54049141 
_cell_length_b                    51.543344049609615 
_cell_length_c                    51.50554440477965 
_cell_angle_alpha                 89.94293974694641 
_cell_angle_beta                  90.04300626994831 
_cell_angle_gamma                 89.97897714749236 
loop_ 
_atom_site_label 
_atom_site_type_symbol 
_atom_site_fract_x 
_atom_site_fract_y 
_atom_site_fract_z 
_atom_site_charge 
N1          N  0.13721788  0.46119506  0.15421606    -0.27400
N2          N  0.15467712  0.44825442  0.16793588    -0.35200
C3          C  0.15111949  0.42267968  0.16473203     0.01000
C4          C  0.13032739  0.41906813  0.14838432     0.07000
C5          C  0.12189789  0.44382996  0.14190210    -0.06100
H6          H  0.16343525  0.40778463  0.17298301     0.07700
H7          H  0.10652728  0.44881901  0.12848170     0.08900
Cu8        Cu  0.18479518  0.46478159  0.18828595     0.44200
Cu9        Cu  0.13745768  0.50194480  0.15162640     0.42000
Cu10       Cu  0.20091419  0.52882050  0.17104508     0.43900
N11         N  0.21723550  0.48310349  0.20262361    -0.34700
N12         N  0.22445772  0.50640803  0.19482312    -0.29000
C13         C  0.24622667  0.51321333  0.20758439    -0.05100
C14         C  0.25265670  0.49323137  0.22434821     0.07100
C15         C  0.23379263  0.47456591  0.22086894     0.00900
H16         H  0.25557003  0.53195242  0.20612314     0.08600
H17         H  0.23189501  0.45639684  0.23123031     0.07600
N18         N  0.17036693  0.55058567  0.15634261    -0.36200
N19         N  0.14683357  0.54169029  0.15103836    -0.28400
C20         C  0.13145582  0.56204479  0.14485443    -0.03600
C21         C  0.14624740  0.58452436  0.14592036     0.05000
C22         C  0.17072147  0.57644163  0.15311865     0.03100
H23         H  0.11122013  0.56054835  0.13945985     0.08200
H24         H  0.18748964  0.58861280  0.15652575     0.07000
N25         N  0.53518267  0.15436071  0.14528911    -0.27400
N26         N  0.54604417  0.17618374  0.15334519    -0.35200
C27         C  0.57144052  0.17599249  0.14737364     0.01000
C28         C  0.57716099  0.15276170  0.13539798     0.07000
C29         C  0.55379457  0.13937255  0.13450047    -0.06100
H30         H  0.58503310  0.19111239  0.15261661     0.07700
H31         H  0.55060164  0.12018669  0.12663158     0.08900
Cu32       Cu  0.52734155  0.20345687  0.17605616     0.44200
Cu33       Cu  0.49522893  0.14684665  0.14981337     0.42000
Cu34       Cu  0.46574913  0.18429960  0.20184974     0.43900
N35         N  0.50895532  0.22284471  0.20595869    -0.34700
N36         N  0.48725205  0.21457273  0.21681088    -0.29000
C37         C  0.48175461  0.22955685  0.23744145    -0.05100
C38         C  0.50076119  0.24832399  0.23927781     0.07100
C39         C  0.51764814  0.24362923  0.21905280     0.00900
H40         H  0.46507530  0.22712256  0.24995263     0.08600
H41         H  0.53548268  0.25384704  0.21482697     0.07600
N42         N  0.44517662  0.15947076  0.17809271    -0.36200
N43         N  0.45517998  0.14670023  0.15817978    -0.28400
C44         C  0.43556616  0.13526732  0.14503000    -0.03600
C45         C  0.41243743  0.14091099  0.15763748     0.05000
C46         C  0.41932024  0.15620598  0.17843922     0.03100
H47         H  0.43791037  0.12396949  0.12750159     0.08200
H48         H  0.40633182  0.16533484  0.19217786     0.07000
N49         N  0.16005353  0.15051177  0.53794343    -0.27400
N50         N  0.18343445  0.15781466  0.54573857    -0.35200
C51         C  0.18555676  0.15376998  0.57149890     0.01000
C52         C  0.16231355  0.14397928  0.58062592     0.07000
C53         C  0.14650181  0.14228320  0.55885148    -0.06100
H54         H  0.20233587  0.15894730  0.58301681     0.07700
H55         H  0.12659564  0.13565097  0.55828512     0.08900
Cu56       Cu  0.21009997  0.17739220  0.52236147     0.44200
Cu57       Cu  0.14788587  0.15267795  0.49894560     0.42000
Cu58       Cu  0.18335167  0.20080312  0.46226844     0.43900
N59         N  0.22833823  0.20534726  0.49942499    -0.34700
N60         N  0.21725801  0.21537897  0.47853421    -0.29000
C61         C  0.23157749  0.23551521  0.47008754    -0.05100
C62         C  0.25294831  0.23801442  0.48613229     0.07100
C63         C  0.25038437  0.21850759  0.50446449     0.00900
H64         H  0.22668229  0.24757637  0.45359368     0.08600
H65         H  0.26273815  0.21517513  0.52112548     0.07600
N66         N  0.15410286  0.17812053  0.44628874    -0.36200
N67         N  0.14207693  0.15932669  0.45901458    -0.28400
C68         C  0.12755833  0.14572543  0.44192528    -0.03600
C69         C  0.13021771  0.15691196  0.41753562     0.05000
C70         C  0.14717858  0.17733760  0.42109587     0.03100
H71         H  0.11651055  0.12853310  0.44671505     0.08200
H72         H  0.15531587  0.18961316  0.40612125     0.07000
N73         N  0.54208186  0.14165671  0.83468718    -0.27400
N74         N  0.55174815  0.15099127  0.81280032    -0.35200
C75         C  0.57717061  0.14521099  0.81153788     0.01000
C76         C  0.58397023  0.13206125  0.83389913     0.07000
C77         C  0.56135960  0.13031534  0.84827768    -0.06100
H78         H  0.59017546  0.15193695  0.79647929     0.07700
H79         H  0.55923061  0.12208280  0.86748652     0.08900
Cu80       Cu  0.53189977  0.17681390  0.78916667     0.44200
Cu81       Cu  0.50339601  0.14658198  0.84562902     0.42000
Cu82       Cu  0.47696516  0.20621599  0.82320196     0.43900
N83         N  0.51330800  0.21047303  0.77726116    -0.34700
N84         N  0.49515465  0.22235304  0.79099727    -0.29000
C85         C  0.48831379  0.24437844  0.77875362    -0.05100
C86         C  0.50246605  0.24614502  0.75606568     0.07100
C87         C  0.51808494  0.22436196  0.75565679     0.00900
H88         H  0.47314541  0.25738003  0.78517653     0.08600
H89         H  0.53193943  0.21902827  0.74081924     0.07600
N90         N  0.45600681  0.18061439  0.84629087    -0.36200
N91         N  0.46506668  0.15751012  0.85280401    -0.28400
C92         C  0.44565984  0.14346594  0.86330547    -0.03600
C93         C  0.42352983  0.15872235  0.86398266     0.05000
C94         C  0.43081797  0.18216509  0.85310190     0.03100
H95         H  0.44738154  0.12347983  0.86951410     0.08200
H96         H  0.41826688  0.19842751  0.84872635     0.07000
N97         N  0.15982889  0.46128117  0.84836984    -0.27400
N98         N  0.16595758  0.45088249  0.82566511    -0.35200
C99         C  0.16144610  0.42523919  0.82637783     0.01000
C100        C  0.15253093  0.41879008  0.85074612     0.07000
C101        C  0.15172824  0.44205186  0.86433199    -0.06100
H102        H  0.16525742  0.41205205  0.81049058     0.07700
H103        H  0.14543447  0.44481751  0.88416893     0.08900
Cu104      Cu  0.18326249  0.47014228  0.79493338     0.44200
Cu105      Cu  0.16237090  0.50150381  0.85579304     0.42000
Cu106      Cu  0.19779192  0.53610039  0.80557107     0.43900
N107        N  0.20681034  0.49117745  0.77013618    -0.34700
N108        N  0.21331503  0.51541887  0.77520010    -0.29000
C109        C  0.23111204  0.52334813  0.75793929    -0.05100
C110        C  0.23562308  0.50325243  0.74088470     0.07100
C111        C  0.21997244  0.48307723  0.74908019     0.00900
H112        H  0.24033241  0.54220509  0.75803277     0.08600
H113        H  0.21933238  0.46359608  0.74130316     0.07600
N114        N  0.17837615  0.55431882  0.83531628    -0.36200
N115        N  0.16581230  0.54230575  0.85423535    -0.28400
C116        C  0.15480852  0.56050252  0.86959716    -0.03600
C117        C  0.16066891  0.58482709  0.85953965     0.05000
C118        C  0.17544308  0.58007653  0.83780418     0.03100
H119        H  0.14251304  0.55634849  0.88609789     0.08200
H120        H  0.18306458  0.59431558  0.82436520     0.07000
N121        N  0.46126907  0.86092722  0.15397064    -0.27400
N122        N  0.45214115  0.85151007  0.17604252    -0.35200
C123        C  0.42656993  0.85648331  0.17758361     0.01000
C124        C  0.41896811  0.86915932  0.15519979     0.07000
C125        C  0.44142063  0.87158074  0.14053199    -0.06100
H126        H  0.41403354  0.84957866  0.19295439     0.07700
H127        H  0.44305964  0.87982372  0.12127853     0.08900
Cu128      Cu  0.47308630  0.82665990  0.19983121     0.44200
Cu129      Cu  0.50018798  0.85633397  0.14316957     0.42000
Cu130      Cu  0.52710700  0.79597754  0.16740809     0.43900
N131        N  0.49191024  0.79391578  0.21380062    -0.34700
N132        N  0.51009200  0.78142247  0.20071007    -0.29000
C133        C  0.51708157  0.76008266  0.21402715    -0.05100
C134        C  0.50285395  0.75937829  0.23672023     0.07100
C135        C  0.48711523  0.78107408  0.23601877     0.00900
H136        H  0.53203317  0.74661622  0.20806167     0.08600
H137        H  0.47290553  0.78685532  0.25034041     0.07600
N138        N  0.54750481  0.82161024  0.14424886    -0.36200
N139        N  0.53870383  0.84473974  0.13736083    -0.28400
C140        C  0.55852182  0.85855619  0.12730612    -0.03600
C141        C  0.58050529  0.84307977  0.12737609     0.05000
C142        C  0.57279810  0.81982414  0.13815088     0.03100
H143        H  0.55715099  0.87848983  0.12086131     0.08200
H144        H  0.58511572  0.80351139  0.14300797     0.07000
N145        N  0.84083142  0.53724302  0.14334832    -0.27400
N146        N  0.83433655  0.54788401  0.16583685    -0.35200
C147        C  0.83878270  0.57356101  0.16485131     0.01000
C148        C  0.84802203  0.57979111  0.14049977     0.07000
C149        C  0.84905458  0.55632368  0.12724855    -0.06100
H150        H  0.83497610  0.58688431  0.18062413     0.07700
H151        H  0.85585865  0.55328971  0.10762210     0.08900
Cu152      Cu  0.81745909  0.52848380  0.19688577     0.44200
Cu153      Cu  0.83925725  0.49677496  0.13670740     0.42000
Cu154      Cu  0.80834427  0.46132256  0.19023052     0.43900
N155        N  0.79582674  0.50705110  0.22324607    -0.34700
N156        N  0.79176344  0.48195728  0.22017043    -0.29000
C157        C  0.77484856  0.47367969  0.23822851    -0.05100
C158        C  0.76829957  0.49457079  0.25363941     0.07100
C159        C  0.78178176  0.51546627  0.24358211     0.00900
H160        H  0.76723685  0.45415762  0.23947150     0.08600
H161        H  0.78034609  0.53550657  0.24964281     0.07600
N162        N  0.82669219  0.44377393  0.15934748    -0.36200
N163        N  0.83726593  0.45586879  0.13927068    -0.28400
C164        C  0.84742799  0.43773394  0.12323420    -0.03600
C165        C  0.84317349  0.41341149  0.13410084     0.05000
C166        C  0.83018801  0.41809984  0.15694561     0.03100
H167        H  0.85811286  0.44196232  0.10566159     0.08200
H168        H  0.82398408  0.40384449  0.17108405     0.07000
N169        N  0.13918656  0.84561665  0.46058032    -0.27400
N170        N  0.14827706  0.82399714  0.45010520    -0.35200
C171        C  0.14250941  0.82371177  0.42463733     0.01000
C172        C  0.12953073  0.84634341  0.41860891     0.07000
C173        C  0.12789722  0.85992651  0.44174762    -0.06100
H174        H  0.14883267  0.80890824  0.41116106     0.07700
H175        H  0.11961705  0.87900624  0.44456907     0.08900
Cu176      Cu  0.17271606  0.79816238  0.46901781     0.44200
Cu177      Cu  0.14412828  0.85513794  0.49982364     0.42000
Cu178      Cu  0.20156755  0.82518430  0.52627155     0.43900
N179        N  0.20443053  0.78165040  0.48754831    -0.34700
N180        N  0.21625716  0.79289690  0.50734095    -0.29000
C181        C  0.23728228  0.77886572  0.51384389    -0.05100
C182        C  0.23848074  0.75756922  0.49761919     0.07100
C183        C  0.21735149  0.75985253  0.48120803     0.00900
H184        H  0.25029375  0.78343561  0.52968165     0.08600
H185        H  0.21211505  0.74699944  0.46546119     0.07600
N186        N  0.17818000  0.85029211  0.54722038    -0.36200
N187        N  0.15600335  0.85983202  0.53845400    -0.28400
C188        C  0.14347669  0.87139814  0.55834266    -0.03600
C189        C  0.15888604  0.86948908  0.58036172     0.05000
C190        C  0.18065568  0.85601730  0.57256099     0.03100
H191        H  0.12436584  0.87999640  0.55703581     0.08200
H192        H  0.19629807  0.84923595  0.58484744     0.07000
O193        O  0.45634091  0.50621652  0.66551006    -0.73000
O194        O  0.53204539  0.49737706  0.67231977    -0.74000
O195        O  0.48972653  0.46398677  0.66930097    -0.62600
O196        O  0.49858256  0.53988676  0.66857469    -0.71000
O197        O  0.49384236  0.54198671  0.71136691    -0.70600
O198        O  0.48691378  0.46329910  0.71230302    -0.61800
O199        O  0.52969217  0.49915352  0.71531411    -0.74300
O200        O  0.45128229  0.50629490  0.70831822    -0.73100
Cu201      Cu  0.49429519  0.50186711  0.66763767     1.04600
Cu202      Cu  0.49029741  0.50272538  0.71355012     1.04300
C203        C  0.44171810  0.50739346  0.68539641     0.93200
C204        C  0.54303795  0.49687995  0.69447960     0.92300
C205        C  0.48714851  0.45145373  0.69046478     0.84500
C206        C  0.49732146  0.55311087  0.68942005     0.90700
O207        O  0.50747539  0.54269989  0.27967763    -0.73000
O208        O  0.51402629  0.46415374  0.28098486    -0.74000
O209        O  0.47139001  0.50032311  0.27681801    -0.62600
O210        O  0.55007628  0.50650698  0.28393940    -0.71000
O211        O  0.54517813  0.50844604  0.32670169    -0.70600
O212        O  0.46926415  0.49919149  0.31983325    -0.61800
O213        O  0.51192977  0.46577828  0.32400797    -0.74300
O214        O  0.50222899  0.54178564  0.32245985    -0.73100
Cu215      Cu  0.51091013  0.50342114  0.27865943     1.04600
Cu216      Cu  0.50704167  0.50382140  0.32456457     1.04300
C217        C  0.50317144  0.55435463  0.30116902     0.93200
C218        C  0.51441206  0.45281859  0.30309827     0.92300
C219        C  0.45809000  0.49872175  0.29774580     0.84500
C220        C  0.55980563  0.50840539  0.30675507     0.90700
O221        O  0.51241941  0.28656158  0.45767667    -0.73000
O222        O  0.50536038  0.28602205  0.53674174    -0.74000
O223        O  0.46959730  0.28677260  0.49369497    -0.62600
O224        O  0.54848084  0.28546868  0.50084804    -0.71000
O225        O  0.54765522  0.32848060  0.50238069    -0.70600
O226        O  0.47128154  0.32978391  0.49267119    -0.61800
O227        O  0.50474977  0.32905252  0.53541439    -0.74300
O228        O  0.51427511  0.32953953  0.45940310    -0.73100
Cu229      Cu  0.50896920  0.28449493  0.49720052     1.04600
Cu230      Cu  0.50954064  0.33050926  0.49744759     1.04300
C231        C  0.51454714  0.30858536  0.44631654     0.93200
C232        C  0.50356827  0.30796352  0.54827169     0.92300
C233        C  0.45820755  0.30878738  0.49194850     0.84500
C234        C  0.56026842  0.30719910  0.50322975     0.90700
O235        O  0.67543612  0.50179741  0.47054234    -0.73000
O236        O  0.67164039  0.50278032  0.54702122    -0.74000
O237        O  0.67205187  0.54052627  0.50792809    -0.62600
O238        O  0.67531512  0.46403599  0.50985876    -0.71000
O239        O  0.71832209  0.46493776  0.51224148    -0.70600
O240        O  0.71498809  0.54363037  0.50980400    -0.61800
O241        O  0.71451204  0.50549537  0.55037030    -0.74300
O242        O  0.71846284  0.50339783  0.47124122    -0.73100
Cu243      Cu  0.67230802  0.50222267  0.50873574     1.04600
Cu244      Cu  0.71828136  0.50440846  0.51096026     1.04300
C245        C  0.69705194  0.50274096  0.45860118     0.93200
C246        C  0.69205242  0.50416528  0.56089963     0.92300
C247        C  0.69260317  0.55426099  0.50847234     0.84500
C248        C  0.69697776  0.45226927  0.51187933     0.90700
O249        O  0.45755606  0.67240343  0.49692325    -0.73000
O250        O  0.53391613  0.67334176  0.49129213    -0.74000
O251        O  0.49879111  0.67316506  0.53228402    -0.62600
O252        O  0.49261778  0.67274547  0.45566658    -0.71000
O253        O  0.49285247  0.71580740  0.45463468    -0.70600
O254        O  0.49769137  0.71621289  0.53339311    -0.61800
O255        O  0.53469887  0.71639880  0.49195367    -0.74300
O256        O  0.45572047  0.71542659  0.49654797    -0.73100
Cu257      Cu  0.49574148  0.67159157  0.49400643     1.04600
Cu258      Cu  0.49521243  0.71765314  0.49405660     1.04300
C259        C  0.44441591  0.69333197  0.49770395     0.93200
C260        C  0.54655945  0.69458322  0.49130601     0.92300
C261        C  0.49932670  0.69434850  0.54504282     0.84500
C262        C  0.49164282  0.69394286  0.44293172     0.90700
O263        O  0.32833647  0.46142641  0.48431644    -0.73000
O264        O  0.32493096  0.53769958  0.48483274    -0.74000
O265        O  0.32497666  0.49941077  0.52270660    -0.62600
O266        O  0.32829057  0.49958618  0.44641994    -0.71000
O267        O  0.28537736  0.49775874  0.44320995    -0.70600
O268        O  0.28197247  0.49722021  0.52239237    -0.61800
O269        O  0.28190765  0.53736368  0.48328478    -0.74300
O270        O  0.28544900  0.45808015  0.48231165    -0.73100
Cu271      Cu  0.32788585  0.49962185  0.48461303     1.04600
Cu272      Cu  0.28192448  0.49757955  0.48270414     1.04300
C273        C  0.30795075  0.44753957  0.48292096     0.93200
C274        C  0.30338272  0.54980525  0.48466844     0.92300
C275        C  0.30347289  0.49832549  0.53482182     0.84500
C276        C  0.30784020  0.49819833  0.43260698     0.90700
N277        N  0.38734370  0.30361705  0.48787113    -0.27400
N278        N  0.39118107  0.32870448  0.48451734    -0.35200
C279        C  0.41663094  0.33384031  0.48520103     0.01000
C280        C  0.42983609  0.31088275  0.48908458     0.07000
C281        C  0.41069457  0.29192469  0.49067301    -0.06100
H282        H  0.42489850  0.35305406  0.48336622     0.07700
H283        H  0.41348775  0.27140861  0.49406388     0.08900
Cu284      Cu  0.36186310  0.35524957  0.48046998     0.44200
Cu285      Cu  0.34947180  0.28885936  0.48887880     0.42000
Cu286      Cu  0.29528080  0.33786316  0.48018972     0.43900
N287        N  0.33245578  0.38197365  0.48009058    -0.34700
N288        N  0.30744372  0.37649001  0.48018318    -0.29000
C289        C  0.29395215  0.39902021  0.48107550    -0.05100
C290        C  0.31170830  0.41930742  0.48166586     0.07100
C291        C  0.33574735  0.40764562  0.48095097     0.00900
H292        H  0.27303136  0.40048193  0.48159090     0.08600
H293        H  0.35447227  0.41714144  0.48134521     0.07600
N294        N  0.29088100  0.29759374  0.48264499    -0.36200
N295        N  0.30964861  0.28051529  0.48714687    -0.28400
C296        C  0.29900007  0.25671477  0.48932691    -0.03600
C297        C  0.27252794  0.25882691  0.48546344     0.05000
C298        C  0.26809326  0.28491389  0.48116888     0.03100
H299        H  0.30982411  0.23908744  0.49294301     0.08200
H300        H  0.24951433  0.29413891  0.47788798     0.07000
N301        N  0.29711327  0.62055425  0.49049412    -0.27400
N302        N  0.32214039  0.61658742  0.49405718    -0.35200
C303        C  0.32743014  0.59134620  0.49200000     0.01000
C304        C  0.30468671  0.57823080  0.48706497     0.07000
C305        C  0.28555141  0.59730780  0.48627786    -0.06100
H306        H  0.34662829  0.58310098  0.49419200     0.07700
H307        H  0.26502930  0.59453651  0.48292171     0.08900
Cu308      Cu  0.34897808  0.64486760  0.50100143     0.44200
Cu309      Cu  0.28310485  0.65861876  0.49176152     0.42000
Cu310      Cu  0.33547203  0.71032561  0.50541822     0.43900
N311        N  0.37782310  0.67197241  0.50229658    -0.34700
N312        N  0.37366004  0.69715583  0.50366415    -0.29000
C313        C  0.39678475  0.70952997  0.50233939    -0.05100
C314        C  0.41609465  0.69081038  0.50002493     0.07100
C315        C  0.40322886  0.66737509  0.50010005     0.00900
H316        H  0.39929538  0.73035289  0.50267017     0.08600
H317        H  0.41167669  0.64824556  0.49819108     0.07600
N318        N  0.29553520  0.71623258  0.50180416    -0.36200
N319        N  0.27766274  0.69875939  0.49547694    -0.28400
C320        C  0.25469828  0.71092712  0.49263641    -0.03600
C321        C  0.25816028  0.73696129  0.49792003     0.05000
C322        C  0.28413066  0.73961923  0.50379890     0.03100
H323        H  0.23668409  0.70139409  0.48761305     0.08200
H324        H  0.29421189  0.75742031  0.50849431     0.07000
N325        N  0.38747971  0.49666142  0.28835505    -0.27400
N326        N  0.39009494  0.49371877  0.31365479    -0.35200
C327        C  0.41519221  0.49352461  0.31999878     0.01000
C328        C  0.42961480  0.49647615  0.29771299     0.07000
C329        C  0.41147401  0.49841360  0.27772617    -0.06100
H330        H  0.42239488  0.49194385  0.33968262     0.07700
H331        H  0.41536712  0.50138752  0.25731644     0.08900
Cu332      Cu  0.36021985  0.49187199  0.33950862     0.44200
Cu333      Cu  0.35001161  0.49829009  0.27267996     0.42000
Cu334      Cu  0.29542187  0.48975441  0.32322038     0.43900
N335        N  0.33184687  0.49327607  0.36703942    -0.34700
N336        N  0.30684454  0.49238177  0.36181184    -0.29000
C337        C  0.29350434  0.49421322  0.38435064    -0.05100
C338        C  0.31143425  0.49649073  0.40439504     0.07100
C339        C  0.33539963  0.49576607  0.39257911     0.00900
H340        H  0.27259352  0.49395581  0.38598925     0.08600
H341        H  0.35420634  0.49690263  0.40187460     0.07600
N342        N  0.29155541  0.49132643  0.28299726    -0.36200
N343        N  0.30998386  0.49596383  0.26556035    -0.28400
C344        C  0.29886945  0.49770458  0.24192651    -0.03600
C345        C  0.27256867  0.49343816  0.24463680     0.05000
C346        C  0.26862252  0.48932827  0.27075114     0.03100
H347        H  0.30927267  0.50123596  0.22403344     0.08200
H348        H  0.25026549  0.48582091  0.28031812     0.07000
N349        N  0.37100992  0.51177060  0.68434596    -0.27400
N350        N  0.37664940  0.50909771  0.65955171    -0.35200
C351        C  0.40236012  0.50779611  0.65659510     0.01000
C352        C  0.41372494  0.50953478  0.68077443     0.07000
C353        C  0.39331019  0.51205998  0.69815295    -0.06100
H354        H  0.41203521  0.50497283  0.63817101     0.07700
H355        H  0.39450828  0.51338674  0.71906778     0.08900
Cu356      Cu  0.34922832  0.50520370  0.63111007     0.44200
Cu357      Cu  0.33244862  0.51261364  0.69546310     0.42000
Cu358      Cu  0.28252085  0.49507921  0.64333261     0.43900
N359        N  0.32233631  0.50096277  0.60222246    -0.34700
N360        N  0.29727697  0.49707653  0.60569899    -0.29000
C361        C  0.28570904  0.49557609  0.58212828    -0.05100
C362        C  0.30480791  0.49860916  0.56331037     0.07100
C363        C  0.32758178  0.50195586  0.57688578     0.00900
H364        H  0.26519570  0.49250524  0.57897783     0.08600
H365        H  0.34677218  0.50498133  0.56892161     0.07600
N366        N  0.27579766  0.49914164  0.68311661    -0.36200
N367        N  0.29292235  0.50723429  0.70059403    -0.28400
C368        C  0.28101793  0.50992341  0.72358686    -0.03600
C369        C  0.25551134  0.50263364  0.72070828     0.05000
C370        C  0.25274289  0.49579827  0.69495454     0.03100
H371        H  0.29044211  0.51624259  0.74126568     0.08200
H372        H  0.23510888  0.48971323  0.68531934     0.07000
N373        N  0.69466554  0.62508249  0.50797110    -0.27400
N374        N  0.67011304  0.62022665  0.50273679    -0.35200
C375        C  0.66618738  0.59464135  0.50220511     0.01000
C376        C  0.68944373  0.58247137  0.50718569     0.07000
C377        C  0.70735041  0.60228737  0.51073647    -0.06100
H378        H  0.64763349  0.58557206  0.49841899     0.07700
H379        H  0.72777903  0.60032655  0.51511928     0.08900
Cu380      Cu  0.64267681  0.64812074  0.49667044     0.44200
Cu381      Cu  0.70689695  0.66334616  0.51011941     0.42000
Cu382      Cu  0.65493444  0.71478786  0.49571584     0.43900
N383        N  0.61373637  0.67494008  0.49326455    -0.34700
N384        N  0.61731702  0.70026479  0.49334143    -0.29000
C385        C  0.59387034  0.71202321  0.49216830    -0.05100
C386        C  0.57499557  0.69278166  0.49119556     0.07100
C387        C  0.58841139  0.66967873  0.49195786     0.00900
H388        H  0.59081070  0.73277494  0.49244361     0.08600
H389        H  0.58033530  0.65029950  0.49220690     0.07600
N390        N  0.69488427  0.72062136  0.49880697    -0.36200
N391        N  0.71251131  0.70299126  0.50537223    -0.28400
C392        C  0.73589558  0.71440836  0.50651120    -0.03600
C393        C  0.73302354  0.74013080  0.49984851     0.05000
C394        C  0.70690852  0.74348020  0.49497723     0.03100
H395        H  0.75381383  0.70447263  0.51113020     0.08200
H396        H  0.69724711  0.76131440  0.48952352     0.07000
N397        N  0.50056909  0.62488263  0.29640882    -0.27400
N398        N  0.48970513  0.62057479  0.31921103    -0.35200
C399        C  0.48831560  0.59503630  0.32346644     0.01000
C400        C  0.49870728  0.58240006  0.30233899     0.07000
C401        C  0.50617896  0.60183400  0.28526789    -0.06100
H402        H  0.48139283  0.58633900  0.34129700     0.07700
H403        H  0.51611523  0.59947858  0.26694039     0.08900
Cu404      Cu  0.48141095  0.64865268  0.34612430     0.44200
Cu405      Cu  0.50839774  0.66248615  0.28424873     0.42000
Cu406      Cu  0.49560470  0.71386955  0.33488400     0.43900
N407        N  0.48388813  0.67510186  0.37573786    -0.34700
N408        N  0.48970369  0.69977358  0.37224174    -0.29000
C409        C  0.49267506  0.71111417  0.39569906    -0.05100
C410        C  0.48874533  0.69230294  0.41460253     0.07100
C411        C  0.48320546  0.66983497  0.40117359     0.00900
H412        H  0.49838170  0.73107161  0.39870917     0.08600
H413        H  0.47992098  0.65073217  0.40926803     0.07600
N414        N  0.50132363  0.72017799  0.29535839    -0.36200
N415        N  0.50740173  0.70230428  0.27787254    -0.28400
C416        C  0.50969776  0.71374086  0.25450756    -0.03600
C417        C  0.50427677  0.73980025  0.25732500     0.05000
C418        C  0.49900831  0.74324028  0.28335731     0.03100
H419        H  0.51369031  0.70357301  0.23658034     0.08200
H420        H  0.49371396  0.76116769  0.29289947     0.07000
N421        N  0.50296001  0.69980123  0.61576584    -0.27400
N422        N  0.50623635  0.67471835  0.61193578    -0.35200
C423        C  0.50582852  0.66960199  0.58653054     0.01000
C424        C  0.50210821  0.69253938  0.57334071     0.07000
C425        C  0.50044305  0.71154685  0.59239981    -0.06100
H426        H  0.50737496  0.65034632  0.57831260     0.07700
H427        H  0.49689926  0.73203380  0.58956682     0.08900
Cu428      Cu  0.50813859  0.64763174  0.64076313     0.44200
Cu429      Cu  0.50037060  0.71396427  0.65359440     0.42000
Cu430      Cu  0.49061783  0.66181433  0.70489506     0.43900
N431        N  0.50392564  0.61948404  0.66830541    -0.34700
N432        N  0.49681863  0.62388734  0.69249290    -0.29000
C433        C  0.49416134  0.60085342  0.70478025    -0.05100
C434        C  0.49976247  0.58135296  0.68705178     0.07100
C435        C  0.50584128  0.59396562  0.66427125     0.00900
H436        H  0.48777075  0.59848790  0.72463034     0.08600
H437        H  0.51044408  0.58522376  0.64573842     0.07600
N438        N  0.49122910  0.70177475  0.71115593    -0.36200
N439        N  0.49637626  0.71986536  0.69353510    -0.28400
C440        C  0.49841894  0.74294417  0.70556814    -0.03600
C441        C  0.49382662  0.73930763  0.73173367     0.05000
C442        C  0.48918469  0.71309893  0.73459460     0.03100
H443        H  0.50291833  0.76105763  0.69594160     0.08200
H444        H  0.48584454  0.70278139  0.75259030     0.07000
N445        N  0.70541132  0.38193549  0.51645719    -0.27400
N446        N  0.68007690  0.38467008  0.51870724    -0.35200
C447        C  0.67382338  0.40978693  0.51750599     0.01000
C448        C  0.69627748  0.42392206  0.51443790     0.07000
C449        C  0.71618440  0.40573396  0.51396169    -0.06100
H450        H  0.65417523  0.41716376  0.51829830     0.07700
H451        H  0.73665585  0.40942456  0.51126278     0.08900
Cu452      Cu  0.65433273  0.35464133  0.52054296     0.44200
Cu453      Cu  0.72114925  0.34477987  0.51456176     0.42000
Cu454      Cu  0.67000266  0.29166511  0.50306912     0.43900
N455        N  0.62645060  0.32710978  0.51488489    -0.34700
N456        N  0.63125781  0.30306192  0.50764922    -0.29000
C457        C  0.60830904  0.29104065  0.50311157    -0.05100
C458        C  0.58848995  0.30890272  0.50751899     0.07100
C459        C  0.60089107  0.33135494  0.51498573     0.00900
H460        H  0.60626772  0.27140097  0.49604366     0.08600
H461        H  0.59201516  0.34991270  0.51919092     0.07600
N462        N  0.71050424  0.28742182  0.50270796    -0.36200
N463        N  0.72812018  0.30536900  0.50838050    -0.28400
C464        C  0.75184077  0.29438927  0.50795593    -0.03600
C465        C  0.74910871  0.26864428  0.50114666     0.05000
C466        C  0.72279476  0.26491601  0.49784994     0.03100
H467        H  0.76980229  0.30459382  0.51170519     0.08200
H468        H  0.71317563  0.24692936  0.49292263     0.07000
N469        N  0.63081108  0.50699998  0.30744313    -0.27400
N470        N  0.62531944  0.51096629  0.33212606    -0.35200
C471        C  0.59958659  0.51292751  0.33506932     0.01000
C472        C  0.58801040  0.51007586  0.31105669     0.07000
C473        C  0.60839032  0.50637434  0.29379592    -0.06100
H474        H  0.58994243  0.51525253  0.35357946     0.07700
H475        H  0.60698538  0.50254043  0.27320883     0.08900
Cu476      Cu  0.65270615  0.51080399  0.36116715     0.44200
Cu477      Cu  0.66922659  0.50124590  0.29627449     0.42000
Cu478      Cu  0.71977329  0.50103151  0.35047972     0.43900
N479        N  0.67915083  0.50709434  0.39083399    -0.34700
N480        N  0.70432714  0.50355579  0.38778360    -0.29000
C481        C  0.71547790  0.50153463  0.41151733    -0.05100
C482        C  0.69602138  0.50373828  0.43006526     0.07100
C483        C  0.67343516  0.50723434  0.41613169     0.00900
H484        H  0.73593436  0.49836176  0.41495532     0.08600
H485        H  0.65405637  0.50965387  0.42383690     0.07600
N486        N  0.72703772  0.49851004  0.31067534    -0.36200
N487        N  0.70933914  0.49781642  0.29193015    -0.28400
C488        C  0.72147754  0.49576238  0.26891926    -0.03600
C489        C  0.74785188  0.49539689  0.27332029     0.05000
C490        C  0.75078932  0.49726080  0.29986927     0.03100
H491        H  0.71178393  0.49522906  0.25028318     0.08200
H492        H  0.76884643  0.49772035  0.31058476     0.07000
N493        N  0.61326093  0.49551353  0.70456044    -0.27400
N494        N  0.61112049  0.49009029  0.67963733    -0.35200
C495        C  0.58606904  0.48876299  0.67309264     0.01000
C496        C  0.57136108  0.49365209  0.69488496     0.07000
C497        C  0.58917044  0.49776479  0.71473683    -0.06100
H498        H  0.57909771  0.48592451  0.65347221     0.07700
H499        H  0.58499701  0.50332084  0.73453395     0.08900
Cu500      Cu  0.64160590  0.48977607  0.65421210     0.44200
Cu501      Cu  0.64997073  0.50192064  0.72023980     0.42000
Cu502      Cu  0.70130115  0.51851770  0.66970440     0.43900
N503        N  0.66911582  0.49798988  0.62676605    -0.34700
N504        N  0.69154479  0.50930423  0.63164709    -0.29000
C505        C  0.70429001  0.51280653  0.60896951    -0.05100
C506        C  0.68860663  0.50344619  0.58914869     0.07100
C507        C  0.66658694  0.49431224  0.60122254     0.00900
H508        H  0.72301477  0.52205510  0.60702124     0.08600
H509        H  0.64962800  0.48598275  0.59205261     0.07600
N510        N  0.70677788  0.51567356  0.70965527    -0.36200
N511        N  0.68948114  0.50780972  0.72705164    -0.28400
C512        C  0.70163604  0.50403650  0.74991570    -0.03600
C513        C  0.72748311  0.51034036  0.74683575     0.05000
C514        C  0.73002356  0.51782664  0.72126304     0.03100
H515        H  0.69230995  0.49724930  0.76746427     0.08200
H516        H  0.74779781  0.52309500  0.71141124     0.07000
N517        N  0.52003892  0.38230754  0.29879534    -0.27400
N518        N  0.52278314  0.38639585  0.32392454    -0.35200
C519        C  0.52161157  0.41185262  0.32870945     0.01000
C520        C  0.51799944  0.42468103  0.30549201     0.07000
C521        C  0.51714766  0.40541397  0.28670541    -0.06100
H522        H  0.52258836  0.42034750  0.34789136     0.07700
H523        H  0.51375198  0.40789326  0.26613319     0.08900
Cu524      Cu  0.52509602  0.35760066  0.35136817     0.44200
Cu525      Cu  0.51788085  0.34465617  0.28480813     0.42000
Cu526      Cu  0.50981628  0.29300434  0.33729207     0.43900
N527        N  0.52152528  0.32987347  0.37977070    -0.34700
N528        N  0.51549293  0.30541343  0.37531836    -0.29000
C529        C  0.51284660  0.29305532  0.39835592    -0.05100
C530        C  0.51732131  0.31098960  0.41798648     0.07100
C531        C  0.52272945  0.33398020  0.40536731     0.00900
H532        H  0.50711255  0.27300335  0.40062011     0.08600
H533        H  0.52640487  0.35267897  0.41416938     0.07600
N534        N  0.50698720  0.28762870  0.29727932    -0.36200
N535        N  0.51141654  0.30529679  0.27904159    -0.28400
C536        C  0.50975481  0.29392872  0.25562853    -0.03600
C537        C  0.50343406  0.26821961  0.25927774     0.05000
C538        C  0.50172538  0.26482241  0.28576984     0.03100
H539        H  0.51259899  0.30378039  0.23728651     0.08200
H540        H  0.49786319  0.24689018  0.29599403     0.07000
N541        N  0.48544161  0.38068742  0.69528630    -0.27400
N542        N  0.48441858  0.38464407  0.67000504    -0.35200
C543        C  0.48390779  0.41007866  0.66514843     0.01000
C544        C  0.48476676  0.42315293  0.68844590     0.07000
C545        C  0.48566576  0.40396951  0.70740379    -0.06100
H546        H  0.48403305  0.41845156  0.64586774     0.07700
H547        H  0.48740064  0.40668712  0.72814427     0.08900
Cu548      Cu  0.48698926  0.35615469  0.64251502     0.44200
Cu549      Cu  0.48848339  0.34295525  0.70936624     0.42000
Cu550      Cu  0.49612209  0.29063831  0.65727616     0.43900
N551        N  0.49301507  0.32880433  0.61439656    -0.34700
N552        N  0.49620363  0.30383020  0.61896858    -0.29000
C553        C  0.50025212  0.29161279  0.59606177    -0.05100
C554        C  0.49971871  0.31021158  0.57648105     0.07100
C555        C  0.49512179  0.33340482  0.58896317     0.00900
H556        H  0.50381375  0.27105329  0.59390989     0.08600
H557        H  0.49362048  0.35244353  0.58020472     0.07600
N558        N  0.49714444  0.28526843  0.69750332    -0.36200
N559        N  0.49351606  0.30328233  0.71556112    -0.28400
C560        C  0.49475224  0.29202286  0.73911089    -0.03600
C561        C  0.49989252  0.26597063  0.73577644     0.05000
C562        C  0.50135882  0.26233392  0.70927687     0.03100
H563        H  0.49255356  0.30219240  0.75734677     0.08200
H564        H  0.50473031  0.24422377  0.69922297     0.07000
N565        N  0.84424689  0.85076533  0.45321495    -0.27400
N566        N  0.82091221  0.84408157  0.44481061    -0.35200
C567        C  0.81915690  0.84899995  0.41922761     0.01000
C568        C  0.84262636  0.85874048  0.41083372     0.07000
C569        C  0.85821809  0.85946572  0.43280513    -0.06100
H570        H  0.80251475  0.84433358  0.40729550     0.07700
H571        H  0.87821015  0.86577161  0.43384846     0.08900
Cu572      Cu  0.79424793  0.82347775  0.46667888     0.44200
Cu573      Cu  0.85538611  0.84733787  0.49237030     0.42000
Cu574      Cu  0.82206225  0.79603845  0.52508513     0.43900
N575        N  0.77772303  0.79306043  0.48707367    -0.34700
N576        N  0.78928022  0.78165173  0.50697300    -0.29000
C577        C  0.77520478  0.76101181  0.51434897    -0.05100
C578        C  0.75357835  0.75965891  0.49861813     0.07100
C579        C  0.75566288  0.78024008  0.48154785     0.00900
H580        H  0.78002734  0.74834800  0.53040471     0.08600
H581        H  0.74258575  0.78507385  0.46582876     0.07600
N582        N  0.84810824  0.82014034  0.54382067    -0.36200
N583        N  0.85939866  0.84014922  0.53238050    -0.28400
C584        C  0.87167129  0.85432216  0.55070211    -0.03600
C585        C  0.86821147  0.84230582  0.57458256     0.05000
C586        C  0.85321049  0.82073018  0.56943928     0.03100
H587        H  0.88182126  0.87232179  0.54703569     0.08200
H588        H  0.84526394  0.80731186  0.58351066     0.07000
N589        N  0.46408344  0.84455803  0.85394277    -0.27400
N590        N  0.45308620  0.82295974  0.84546133    -0.35200
C591        C  0.42754193  0.82365605  0.85077272     0.01000
C592        C  0.42199456  0.84699255  0.86267271     0.07000
C593        C  0.44553708  0.85987273  0.86430172    -0.06100
H594        H  0.41374211  0.80895646  0.84491695     0.07700
H595        H  0.44887893  0.87903832  0.87216057     0.08900
Cu596      Cu  0.47161055  0.79621035  0.82176425     0.44200
Cu597      Cu  0.50381738  0.85220608  0.84970159     0.42000
Cu598      Cu  0.52902184  0.82264981  0.79182584     0.43900
N599        N  0.48838251  0.78085274  0.78854085    -0.34700
N600        N  0.50786494  0.79216354  0.77626053    -0.29000
C601        C  0.51249542  0.77936601  0.75399334    -0.05100
C602        C  0.49536120  0.75881848  0.75242520     0.07100
C603        C  0.48043375  0.76020868  0.77467175     0.00900
H604        H  0.52772449  0.78418427  0.74037505     0.08600
H605        H  0.46453073  0.74760470  0.78002783     0.07600
N606        N  0.55154483  0.84490218  0.81668117    -0.36200
N607        N  0.54302676  0.85423368  0.83902519    -0.28400
C608        C  0.56342171  0.86384322  0.85240198    -0.03600
C609        C  0.58558485  0.86083929  0.83741647     0.05000
C610        C  0.57728451  0.84884296  0.81494772     0.03100
H611        H  0.56226488  0.87212823  0.87165689     0.08200
H612        H  0.58932723  0.84209876  0.79913023     0.07000
N613        N  0.86403109  0.53934940  0.83639206    -0.27400
N614        N  0.84688730  0.55194062  0.82199483    -0.35200
C615        C  0.84996497  0.57761912  0.82501468     0.01000
C616        C  0.87025784  0.58184562  0.84187783     0.07000
C617        C  0.87883941  0.55715398  0.84885302    -0.06100
H618        H  0.83767703  0.59220475  0.81619400     0.07700
H619        H  0.89384088  0.55254053  0.86281818     0.08900
Cu620      Cu  0.81772134  0.53450635  0.80104437     0.44200
Cu621      Cu  0.86309101  0.49830833  0.83937878     0.42000
Cu622      Cu  0.79923464  0.47097108  0.81929500     0.43900
N623        N  0.78486476  0.51686912  0.78686380    -0.34700
N624        N  0.77656727  0.49403583  0.79501578    -0.29000
C625        C  0.75408614  0.48845957  0.78282950    -0.05100
C626        C  0.74842412  0.50871893  0.76604674     0.07100
C627        C  0.76839054  0.52625121  0.76898986     0.00900
H628        H  0.74348235  0.47046559  0.78492869     0.08600
H629        H  0.77084608  0.54445843  0.75881665     0.07600
N630        N  0.82961257  0.44943787  0.83512948    -0.36200
N631        N  0.85316178  0.45836576  0.84045616    -0.28400
C632        C  0.86837093  0.43800491  0.84716905    -0.03600
C633        C  0.85350537  0.41551343  0.84653303     0.05000
C634        C  0.82911326  0.42362291  0.83898755     0.03100
H635        H  0.88859438  0.43950008  0.85260316     0.08200
H636        H  0.81233430  0.41144476  0.83565934     0.07000
N637        N  0.86120738  0.15246179  0.53293204    -0.27400
N638        N  0.85467069  0.17506601  0.54324501    -0.35200
C639        C  0.86073499  0.17504129  0.56864875     0.01000
C640        C  0.87106280  0.15115508  0.57501047     0.07000
C641        C  0.87098972  0.13719373  0.55194698    -0.06100
H642        H  0.85645320  0.19075187  0.58189769     0.07700
H643        H  0.87740366  0.11739124  0.54925333     0.08900
Cu644      Cu  0.83309076  0.20341282  0.52429085     0.44200
Cu645      Cu  0.85579284  0.14404360  0.49320834     0.42000
Cu646      Cu  0.80405495  0.18228420  0.46488882     0.43900
N647        N  0.80309841  0.22341194  0.50616697    -0.34700
N648        N  0.79107928  0.21426896  0.48542918    -0.29000
C649        C  0.77040221  0.22929276  0.48017093    -0.05100
C650        C  0.76960239  0.24906070  0.49823968     0.07100
C651        C  0.79065893  0.24487314  0.51439006     0.00900
H652        H  0.75689218  0.22599472  0.46443296     0.08600
H653        H  0.79566719  0.25569757  0.53166589     0.07600
N654        N  0.82609081  0.15611106  0.44383515    -0.36200
N655        N  0.84611855  0.14314751  0.45339209    -0.28400
C656        C  0.85831028  0.13104727  0.43355441    -0.03600
C657        C  0.84491392  0.13634251  0.41072485     0.05000
C658        C  0.82467989  0.15223939  0.41805273     0.03100
H659        H  0.87576296  0.11954458  0.43552170     0.08200
H660        H  0.81070533  0.16145240  0.40534459     0.07000
O661        O  0.79342995  0.74774171  0.00964980    -0.73000
O662        O  0.75503603  0.78930843  0.95493825    -0.74000
O663        O  0.79532986  0.75049592  0.95424030    -0.62600
O664        O  0.75364593  0.78680914  0.01028194    -0.71000
O665        O  0.78366416  0.81760199  0.01219185    -0.70600
O666        O  0.82521617  0.78134134  0.95696667    -0.61800
O667        O  0.78542951  0.81972276  0.95672847    -0.74300
O668        O  0.82292859  0.77894267  0.01249176    -0.73100
Cu669      Cu  0.77330093  0.76750294  0.98216444     1.04600
Cu670      Cu  0.80532660  0.80044510  0.98464700     1.04300
C671        C  0.81409662  0.75692836  0.01985669     0.93200
C672        C  0.76419169  0.81104625  0.94723133     0.92300
C673        C  0.81698465  0.76022843  0.94693572     0.84500
C674        C  0.76224103  0.80795356  0.02005569     0.90700
N675        N  0.72366217  0.91639799  0.82396102    -0.27400
N676        N  0.74401382  0.91146354  0.83883625    -0.35200
C677        C  0.76400895  0.92640146  0.83118088     0.01000
C678        C  0.75604983  0.94133743  0.81032081     0.07000
C679        C  0.73033744  0.93450431  0.80623267    -0.06100
H680        H  0.78298375  0.92638174  0.84017630     0.07700
H681        H  0.71730412  0.94250476  0.79183284     0.08900
Cu682      Cu  0.74410670  0.88440763  0.86883708     0.44200
Cu683      Cu  0.68755525  0.89876500  0.82964768     0.42000
Cu684      Cu  0.68459783  0.85051169  0.88228240     0.43900
N685        N  0.74119498  0.85530134  0.89670617    -0.34700
N686        N  0.71964960  0.84211122  0.90117069    -0.29000
C687        C  0.72449070  0.82408434  0.91959272    -0.05100
C688        C  0.75022864  0.82630811  0.92726689     0.07100
C689        C  0.76013408  0.84634923  0.91236886     0.00900
H690        H  0.71024285  0.81066877  0.92715775     0.08600
H691        H  0.77977439  0.85373267  0.91269363     0.07600
N692        N  0.65234841  0.86310814  0.86088693    -0.36200
N693        N  0.65364221  0.87973809  0.84129600    -0.28400
C694        C  0.62989528  0.88207138  0.83055795    -0.03600
C695        C  0.61272424  0.86671964  0.84435196     0.05000
C696        C  0.62761292  0.85491006  0.86336913     0.03100
H697        H  0.62551041  0.89381007  0.81369800     0.08200
H698        H  0.62119232  0.84045693  0.87719239     0.07000
O699        O  0.76326220  0.02500338  0.77557110    -0.73000
O700        O  0.80591114  0.97096511  0.73786263    -0.74000
O701        O  0.76374212  0.97002601  0.77464953    -0.62600
O702        O  0.80532052  0.02612332  0.73885950    -0.71000
O703        O  0.83333848  0.02605130  0.77160583    -0.70600
O704        O  0.79247354  0.96948340  0.80676173    -0.61800
O705        O  0.83419114  0.97073689  0.77035983    -0.74300
O706        O  0.79171240  0.02463989  0.80793971    -0.73100
Cu707      Cu  0.78357712  0.99805124  0.75557765     1.04600
Cu708      Cu  0.81390756  0.99772465  0.79026508     1.04300
C709        C  0.77065405  0.03304925  0.79785799     0.93200
C710        C  0.82685644  0.96244141  0.74814427     0.92300
C711        C  0.77147976  0.96113715  0.79651468     0.84500
C712        C  0.82596337  0.03478078  0.74957087     0.90700
N713        N  0.84973257  0.71713401  0.90095523    -0.27400
N714        N  0.86459750  0.73799638  0.89926932    -0.35200
C715        C  0.85496215  0.75654623  0.91496823     0.01000
C716        C  0.83289216  0.74702339  0.92702871     0.07000
C717        C  0.83012144  0.72199939  0.91760066    -0.06100
H718        H  0.86358679  0.77548586  0.91766291     0.07700
H719        H  0.81545093  0.70804791  0.92310678     0.08900
Cu720      Cu  0.89765407  0.74016394  0.87588566     0.44200
Cu721      Cu  0.85833756  0.68211035  0.88236888     0.42000
Cu722      Cu  0.91747648  0.68002819  0.84439587     0.43900
N723        N  0.92806980  0.73774383  0.84917558    -0.34700
N724        N  0.93480340  0.71609294  0.83712332    -0.29000
C725        C  0.95401658  0.72148515  0.82015775    -0.05100
C726        C  0.95985443  0.74768992  0.82181471     0.07100
C727        C  0.94308877  0.75731486  0.84049026     0.00900
H728        H  0.96326549  0.70731338  0.80776469     0.08600
H729        H  0.94165902  0.77720175  0.84703288     0.07600
N730        N  0.89523681  0.64704104  0.85279519    -0.36200
N731        N  0.87311316  0.64814160  0.86576561    -0.28400
C732        C  0.86193700  0.62451811  0.86542461    -0.03600
C733        C  0.87796805  0.60747368  0.85218123     0.05000
C734        C  0.89878618  0.62254039  0.84420165     0.03100
H735        H  0.84289259  0.62030694  0.87316724     0.08200
H736        H  0.91435337  0.61659161  0.83144639     0.07000
O737        O  0.98978948  0.75299178  0.78659555    -0.73000
O738        O  0.04579148  0.79357847  0.74865113    -0.74000
O739        O  0.04503245  0.75409469  0.78851281    -0.62600
O740        O  0.99024834  0.79225940  0.74663979    -0.71000
O741        O  0.98885826  0.82295762  0.77675617    -0.70600
O742        O  0.04293656  0.78467894  0.81871878    -0.61800
O743        O  0.04446030  0.82354281  0.77950904    -0.74300
O744        O  0.98763175  0.78418899  0.81616074    -0.73100
Cu745      Cu  0.01779106  0.77216166  0.76648934     1.04600
Cu746      Cu  0.01592444  0.80488749  0.79876273     1.04300
C747        C  0.97998787  0.76227758  0.80744528     0.93200
C748        C  0.05401943  0.81493038  0.75831375     0.92300
C749        C  0.05234075  0.76329267  0.81039350     0.84500
C750        C  0.98087950  0.81360309  0.75519123     0.90700
N751        N  0.93355215  0.84005747  0.70901012    -0.27400
N752        N  0.92952580  0.85538296  0.72919591    -0.35200
C753        C  0.94573366  0.84838358  0.74854087     0.01000
C754        C  0.96062173  0.82756455  0.74025115     0.07000
C755        C  0.95230166  0.82278619  0.71508376    -0.06100
H756        H  0.94651175  0.85766823  0.76734994     0.07700
H757        H  0.95950709  0.80800400  0.70206252     0.08900
Cu758      Cu  0.90173931  0.88499818  0.72943368     0.44200
Cu759      Cu  0.91351637  0.84410352  0.67390877     0.42000
Cu760      Cu  0.86492224  0.89570023  0.66985482     0.43900
N761        N  0.87212644  0.91254820  0.72578309    -0.34700
N762        N  0.85839805  0.91618122  0.70434805    -0.29000
C763        C  0.84023707  0.93448982  0.70892074    -0.05100
C764        C  0.84273075  0.94287359  0.73438013     0.07100
C765        C  0.86320992  0.92860247  0.74439679     0.00900
H766        H  0.82622700  0.94117502  0.69477157     0.08600
H767        H  0.87079431  0.92948713  0.76396575     0.07600
N768        N  0.87504493  0.87170626  0.63865452    -0.36200
N769        N  0.89214147  0.85259246  0.64042399    -0.28400
C770        C  0.89291909  0.83980824  0.61761750    -0.03600
C771        C  0.87595108  0.85169255  0.60050863     0.05000
C772        C  0.86482628  0.87172853  0.61452254     0.03100
H773        H  0.90464300  0.82280424  0.61390753     0.08200
H774        H  0.84960223  0.88465482  0.60800868     0.07000
O775        O  0.25004619  0.79795406  0.03665018    -0.73000
O776        O  0.21207847  0.75597138  0.98220859    -0.74000
O777        O  0.25078381  0.79600428  0.98155017    -0.62600
O778        O  0.21089654  0.75795925  0.03738301    -0.71000
O779        O  0.17993521  0.78781803  0.03521318    -0.70600
O780        O  0.22007008  0.82618118  0.98035245    -0.61800
O781        O  0.18176898  0.78647944  0.97991462    -0.74300
O782        O  0.21869113  0.82744355  0.03573497    -0.73100
Cu783      Cu  0.23202886  0.77591061  0.00953475     1.04600
Cu784      Cu  0.19905434  0.80800207  0.00777141     1.04300
C785        C  0.24043472  0.81938072  0.04464718     0.93200
C786        C  0.19100954  0.76470827  0.97241586     0.92300
C787        C  0.24173094  0.81721117  0.97233067     0.84500
C788        C  0.18891372  0.76677773  0.04480036     0.90700
N789        N  0.16374818  0.71785442  0.92655681    -0.27400
N790        N  0.15051987  0.73895809  0.92027362    -0.35200
C791        C  0.15809036  0.75864096  0.93568053     0.01000
C792        C  0.17719334  0.74966863  0.95230525     0.07000
C793        C  0.18035630  0.72372393  0.94594093    -0.06100
H794        H  0.15049488  0.77818001  0.93458740     0.07700
H795        H  0.19357252  0.71007335  0.95488315     0.08900
Cu796      Cu  0.12350430  0.74075116  0.89022261     0.44200
Cu797      Cu  0.15826681  0.68201044  0.90843010     0.42000
Cu798      Cu  0.11524651  0.68328432  0.85176070     0.43900
N799        N  0.09920927  0.73919893  0.85792584    -0.34700
N800        N  0.09651975  0.71829226  0.84331643    -0.29000
C801        C  0.07982762  0.72366965  0.82382716    -0.05100
C802        C  0.07151546  0.74914420  0.82644061     0.07100
C803        C  0.08418799  0.75831480  0.84830231     0.00900
H804        H  0.07377908  0.70991317  0.80918616     0.08600
H805        H  0.08256620  0.77749283  0.85665684     0.07600
N806        N  0.13496235  0.65027616  0.86480341    -0.36200
N807        N  0.14989353  0.64949820  0.88572766    -0.28400
C808        C  0.15998712  0.62544757  0.88808793    -0.03600
C809        C  0.15099024  0.61042806  0.86772320     0.05000
C810        C  0.13551325  0.62689190  0.85319390     0.03100
H811        H  0.17406470  0.61978555  0.90262214     0.08200
H812        H  0.12606940  0.62244127  0.83496953     0.07000
N813        N  0.15867444  0.72176005  0.09050260    -0.27400
N814        N  0.14201853  0.74124878  0.09132253    -0.35200
C815        C  0.15040538  0.76031565  0.07553962     0.01000
C816        C  0.17351535  0.75250533  0.06428131     0.07000
C817        C  0.17818121  0.72795007  0.07421563    -0.06100
H818        H  0.14028584  0.77842839  0.07230790     0.07700
H819        H  0.19422140  0.71527576  0.06949145     0.08900
Cu820      Cu  0.10856806  0.74064077  0.11387066     0.44200
Cu821      Cu  0.15276019  0.68708084  0.11044365     0.42000
Cu822      Cu  0.09279116  0.68013541  0.14727969     0.43900
N823        N  0.07811248  0.73655439  0.14002712    -0.34700
N824        N  0.07273472  0.71493367  0.15282009    -0.29000
C825        C  0.05324683  0.71969900  0.16963248    -0.05100
C826        C  0.04591819  0.74544525  0.16705872     0.07100
C827        C  0.06200042  0.75544684  0.14805024     0.00900
H828        H  0.04512746  0.70552509  0.18281607     0.08600
H829        H  0.06249805  0.77525364  0.14109534     0.07600
N830        N  0.11829709  0.64948330  0.13997180    -0.36200
N831        N  0.14075700  0.65264990  0.12793056    -0.28400
C832        C  0.15372117  0.63000789  0.12805306    -0.03600
C833        C  0.13856976  0.61150480  0.14020160     0.05000
C834        C  0.11618325  0.62446858  0.14750742     0.03100
H835        H  0.17278001  0.62716895  0.11973779     0.08200
H836        H  0.10005546  0.61658562  0.15838654     0.07000
O837        O  0.96255305  0.78245687  0.17252291    -0.73000
O838        O  0.01871319  0.82042231  0.21222682    -0.74000
O839        O  0.01792834  0.78154701  0.17298882    -0.62600
O840        O  0.96333993  0.82158865  0.21162744    -0.71000
O841        O  0.96267314  0.79150704  0.24247229    -0.70600
O842        O  0.01688017  0.75054428  0.20290499    -0.61800
O843        O  0.01787664  0.78984079  0.24255713    -0.74300
O844        O  0.96166996  0.75196181  0.20293773    -0.73100
Cu845      Cu  0.99065214  0.80252993  0.19129803     1.04600
Cu846      Cu  0.98973768  0.76987933  0.22378438     1.04300
C847        C  0.95341794  0.76113392  0.18137749     0.93200
C848        C  0.02697778  0.81119566  0.23376913     0.92300
C849        C  0.02593313  0.75975076  0.18168994     0.84500
C850        C  0.95459184  0.81310521  0.23322786     0.90700
N851        N  0.84138201  0.71105258  0.06718349    -0.27400
N852        N  0.85358118  0.73270951  0.07365827    -0.35200
C853        C  0.84591914  0.75198108  0.05772852     0.01000
C854        C  0.82781428  0.74226254  0.04046162     0.07000
C855        C  0.82531431  0.71623465  0.04707140    -0.06100
H856        H  0.85276048  0.77178279  0.05891504     0.07700
H857        H  0.81286262  0.70210071  0.03784048     0.08900
Cu858      Cu  0.87966281  0.73610336  0.10441423     0.44200
Cu859      Cu  0.84749512  0.67544687  0.08636570     0.42000
Cu860      Cu  0.88865099  0.68058667  0.14463680     0.43900
N861        N  0.90455821  0.73614975  0.13631455    -0.34700
N862        N  0.90761956  0.71573199  0.15155354    -0.29000
C863        C  0.92504121  0.72158053  0.17021633    -0.05100
C864        C  0.93346010  0.74687392  0.16642919     0.07100
C865        C  0.92004583  0.75546222  0.14472988     0.00900
H866        H  0.93158368  0.70821270  0.18504063     0.08600
H867        H  0.92161100  0.77429146  0.13557072     0.07600
N868        N  0.86981284  0.64667512  0.13284816    -0.36200
N869        N  0.85606377  0.64413207  0.11124955    -0.28400
C870        C  0.84728996  0.61944013  0.10979764    -0.03600
C871        C  0.85559870  0.60604532  0.13166848     0.05000
C872        C  0.86957625  0.62401661  0.14586017     0.03100
H873        H  0.83460120  0.61219092  0.09472217     0.08200
H874        H  0.87864917  0.62093129  0.16455681     0.07000
N875        N  0.83065582  0.91632263  0.27361947    -0.27400
N876        N  0.84727603  0.91400991  0.25420165    -0.35200
C877        C  0.84014290  0.93010612  0.23486614     0.01000
C878        C  0.81782878  0.94305889  0.24230261     0.07000
C879        C  0.81235580  0.93385652  0.26700831    -0.06100
H880        H  0.85024567  0.93193116  0.21655513     0.07700
H881        H  0.79635749  0.93957954  0.27931388     0.08900
Cu882      Cu  0.87823244  0.88803413  0.25419655     0.44200
Cu883      Cu  0.83461251  0.89598738  0.30852548     0.42000
Cu884      Cu  0.89097051  0.85273728  0.31327476     0.43900
N885        N  0.90560980  0.85842564  0.25689532    -0.34700
N886        N  0.90984296  0.84485132  0.27828674    -0.29000
C887        C  0.92767024  0.82635619  0.27320871    -0.05100
C888        C  0.93515156  0.82861441  0.24745085     0.07100
C889        C  0.92082655  0.84919705  0.23778595     0.00900
H890        H  0.93486149  0.81251943  0.28727985     0.08600
H891        H  0.92120135  0.85673387  0.21817905     0.07600
N892        N  0.86774883  0.86324627  0.34478550    -0.36200
N893        N  0.84643531  0.87745750  0.34266480    -0.28400
C894        C  0.83465584  0.87848329  0.36597812    -0.03600
C895        C  0.84954788  0.86488216  0.38374285     0.05000
C896        C  0.87038560  0.85549397  0.36966896     0.03100
H897        H  0.81652199  0.88836019  0.36972547     0.08200
H898        H  0.88562347  0.84285575  0.37669555     0.07000
O899        O  0.81271721  0.97100714  0.20578329    -0.73000
O900        O  0.77303225  0.02360774  0.16353686    -0.74000
O901        O  0.80984984  0.02622278  0.20472697    -0.62600
O902        O  0.77592243  0.96822469  0.16455615    -0.71000
O903        O  0.74359917  0.96757118  0.19297563    -0.70600
O904        O  0.77824268  0.02510815  0.23392694    -0.61800
O905        O  0.74098095  0.02276041  0.19226984    -0.74300
O906        O  0.78077718  0.96990304  0.23462934    -0.73100
Cu907      Cu  0.79396190  0.99731443  0.18366256     1.04600
Cu908      Cu  0.75976310  0.99629651  0.21445302     1.04300
C909        C  0.80307074  0.96223223  0.22689650     0.93200
C910        C  0.75077999  0.03145242  0.17118268     0.92300
C911        C  0.79968279  0.03457403  0.22576266     0.84500
C912        C  0.75429595  0.95889059  0.17231800     0.90700
N913        N  0.71184229  0.91152592  0.14083170    -0.27400
N914        N  0.73384898  0.90688748  0.12848633    -0.35200
C915        C  0.75231721  0.92290479  0.13781107     0.01000
C916        C  0.74149852  0.93815164  0.15715698     0.07000
C917        C  0.71582040  0.93032519  0.15858025    -0.06100
H918        H  0.77218083  0.92336846  0.13105927     0.07700
H919        H  0.70098748  0.93807617  0.17123393     0.08900
Cu920      Cu  0.73746934  0.87854076  0.09967837     0.44200
Cu921      Cu  0.67727486  0.89237520  0.13216463     0.42000
Cu922      Cu  0.68141567  0.83760746  0.08725470     0.43900
N923        N  0.73677962  0.84884149  0.07203358    -0.34700
N924        N  0.71654750  0.83361423  0.06782428    -0.29000
C925        C  0.72244989  0.81659486  0.04885740    -0.05100
C926        C  0.74755716  0.82142127  0.04063093     0.07100
C927        C  0.75601021  0.84198545  0.05573386     0.00900
H928        H  0.70929923  0.80207022  0.04135444     0.08600
H929        H  0.77480025  0.85129830  0.05494179     0.07600
N930        N  0.64775861  0.84839794  0.10671148    -0.36200
N931        N  0.64584468  0.86916121  0.12169765    -0.28400
C932        C  0.62125645  0.87113331  0.13033145    -0.03600
C933        C  0.60721961  0.85043329  0.12065738     0.05000
C934        C  0.62463885  0.83627835  0.10599902     0.03100
H935        H  0.61445386  0.88578744  0.14372595     0.08200
H936        H  0.62082743  0.81841875  0.09566830     0.07000
N937        N  0.71116389  0.15703147  0.06931470    -0.27400
N938        N  0.73111804  0.14120326  0.07249023    -0.35200
C939        C  0.75028221  0.14827459  0.05618898     0.01000
C940        C  0.74211196  0.16965633  0.04206938     0.07000
C941        C  0.71719709  0.17469060  0.05092089    -0.06100
H942        H  0.76882984  0.13854920  0.05472949     0.07700
H943        H  0.70430703  0.18987191  0.04428134     0.08900
Cu944      Cu  0.73126340  0.11062707  0.09893956     0.44200
Cu945      Cu  0.67645650  0.15299794  0.08997982     0.42000
Cu946      Cu  0.67158418  0.09790429  0.13453905     0.43900
N947        N  0.72760370  0.08189502  0.12713910    -0.34700
N948        N  0.70613392  0.07743488  0.14049407    -0.29000
C949        C  0.71091089  0.05863939  0.15811763    -0.05100
C950        C  0.73653392  0.05083585  0.15557409     0.07100
C951        C  0.74643512  0.06591990  0.13568618     0.00900
H952        H  0.69685157  0.05136461  0.17189886     0.08600
H953        H  0.76611516  0.06579137  0.12840259     0.07600
N954        N  0.64083169  0.12308607  0.12627900    -0.36200
N955        N  0.64307348  0.14377390  0.11117484    -0.28400
C956        C  0.62058972  0.15712299  0.11170911    -0.03600
C957        C  0.60316101  0.14391427  0.12730768     0.05000
C958        C  0.61664779  0.12247408  0.13627767     0.03100
H959        H  0.61720595  0.17520061  0.10157509     0.08200
H960        H  0.60978169  0.10814461  0.15001614     0.07000
O961        O  0.78876174  0.24191775  0.95603436    -0.73000
O962        O  0.74811195  0.20487923  0.01232542    -0.74000
O963        O  0.78792001  0.24411237  0.01114767    -0.62600
O964        O  0.74882807  0.20256016  0.95701249    -0.71000
O965        O  0.77981383  0.17268306  0.95830423    -0.70600
O966        O  0.81756289  0.21294054  0.01337358    -0.61800
O967        O  0.77827912  0.17418620  0.01359245    -0.74300
O968        O  0.81923839  0.21158780  0.95823319    -0.73100
Cu969      Cu  0.76730377  0.22444353  0.98404729     1.04600
Cu970      Cu  0.79971250  0.19179862  0.98590834     1.04300
C971        C  0.81067591  0.23283952  0.94868394     0.93200
C972        C  0.75681887  0.18359857  0.02172687     0.92300
C973        C  0.80897880  0.23501449  0.02066064     0.84500
C974        C  0.75827341  0.18097339  0.94921744     0.90700
N975        N  0.72178101  0.07615252  0.82572847    -0.27400
N976        N  0.74127379  0.07989473  0.84200485    -0.35200
C977        C  0.76158582  0.06530626  0.83449994     0.01000
C978        C  0.75466721  0.05187624  0.81230118     0.07000
C979        C  0.72928083  0.05920609  0.80727805    -0.06100
H980        H  0.78008662  0.06464362  0.84441444     0.07700
H981        H  0.71703745  0.05241882  0.79163462     0.08900
Cu982      Cu  0.73979748  0.10551849  0.87311066     0.44200
Cu983      Cu  0.68571439  0.09384324  0.83021978     0.42000
Cu984      Cu  0.67970551  0.13913181  0.88489496     0.43900
N985        N  0.73592699  0.13504286  0.90029160    -0.34700
N986        N  0.71421131  0.14814256  0.90416834    -0.29000
C987        C  0.71871446  0.16687102  0.92192027    -0.05100
C988        C  0.74444098  0.16520899  0.92970126     0.07100
C989        C  0.75465582  0.14476898  0.91564514     0.00900
H990        H  0.70428725  0.18042616  0.92887240     0.08600
H991        H  0.77440103  0.13766665  0.91628169     0.07600
N992        N  0.64880475  0.12742054  0.86142000    -0.36200
N993        N  0.65130760  0.11216050  0.84089917    -0.28400
C994        C  0.62835743  0.11079907  0.82846410    -0.03600
C995        C  0.61045452  0.12534778  0.84210847     0.05000
C996        C  0.62402259  0.13562377  0.86285870     0.03100
H997        H  0.62506335  0.10034548  0.81056429     0.08200
H998        H  0.61679556  0.14926558  0.87708027     0.07000
N999        N  0.92516706  0.28352520  0.83746938    -0.27400
N1000       N  0.92088184  0.26228519  0.85130028    -0.35200
C1001       C  0.93746588  0.24360461  0.84352178     0.01000
C1002       C  0.95281563  0.25333808  0.82368627     0.07000
C1003       C  0.94437091  0.27869442  0.82029717    -0.06100
H1004       H  0.93807154  0.22418919  0.85149762     0.07700
H1005       H  0.95182979  0.29269264  0.80654591     0.08900
Cu1006     Cu  0.89159627  0.25892123  0.87931101     0.44200
Cu1007     Cu  0.90486153  0.31840411  0.84310445     0.42000
Cu1008     Cu  0.84743137  0.31315653  0.88389811     0.43900
N1009       N  0.85835361  0.25866509  0.90270538    -0.34700
N1010       N  0.84174487  0.27821843  0.90366490    -0.29000
C1011       C  0.82207577  0.27189832  0.91973143    -0.05100
C1012       C  0.82650090  0.24720721  0.92946503     0.07100
C1013       C  0.84973840  0.23947495  0.91830093     0.00900
H1014       H  0.80598594  0.28454590  0.92436415     0.08600
H1015       H  0.85967410  0.22122600  0.92131865     0.07600
N1016       N  0.85898988  0.34744126  0.86558416    -0.36200
N1017       N  0.88057954  0.34992424  0.85189120    -0.28400
C1018       C  0.88267139  0.37482476  0.84388550    -0.03600
C1019       C  0.86116843  0.38847783  0.85259538     0.05000
C1020       C  0.84654907  0.37041656  0.86607337     0.03100
H1021       H  0.89807154  0.38215924  0.83165472     0.08200
H1022       H  0.82812344  0.37375161  0.87555144     0.07000
N1023       N  0.28763163  0.84483188  0.92605212    -0.27400
N1024       N  0.26757322  0.86045016  0.92249610    -0.35200
C1025       C  0.24818871  0.85300965  0.93836716     0.01000
C1026       C  0.25640696  0.83161076  0.95244270     0.07000
C1027       C  0.28150367  0.82696902  0.94413643    -0.06100
H1028       H  0.22944094  0.86239239  0.93946193     0.07700
H1029       H  0.29444772  0.81187565  0.95088225     0.08900
Cu1030     Cu  0.26737659  0.89072296  0.89557376     0.44200
Cu1031     Cu  0.32257679  0.84882260  0.90639427     0.42000
Cu1032     Cu  0.32752634  0.90204404  0.86025320     0.43900
N1033       N  0.27120065  0.91811557  0.86595622    -0.34700
N1034       N  0.29285934  0.92193713  0.85270097    -0.29000
C1035       C  0.28848257  0.94025045  0.83446707    -0.05100
C1036       C  0.26294880  0.94850246  0.83650369     0.07100
C1037       C  0.25263984  0.93406628  0.85670536     0.00900
H1038       H  0.30289974  0.94724584  0.82092134     0.08600
H1039       H  0.23299850  0.93495383  0.86404331     0.07600
N1040       N  0.35850704  0.87751426  0.86989416    -0.36200
N1041       N  0.35610436  0.85743412  0.88575000    -0.28400
C1042       C  0.37848530  0.84397628  0.88601991    -0.03600
C1043       C  0.39606701  0.85644907  0.87009357     0.05000
C1044       C  0.38279841  0.87762273  0.86012927     0.03100
H1045       H  0.38163483  0.82624371  0.89682133     0.08200
H1046       H  0.38985408  0.89131592  0.84585097     0.07000
O1047       O  0.98323138  0.20967439  0.74880478    -0.73000
O1048       O  0.03846086  0.24858332  0.78889699    -0.74000
O1049       O  0.03852625  0.20948156  0.74895791    -0.62600
O1050       O  0.98286895  0.24892905  0.78840738    -0.71000
O1051       O  0.98223969  0.21791016  0.81827795    -0.70600
O1052       O  0.03867462  0.17935103  0.77974480    -0.61800
O1053       O  0.03777354  0.21790378  0.81914861    -0.74300
O1054       O  0.98333702  0.17908064  0.77916075    -0.73100
Cu1055     Cu  0.01079761  0.23028790  0.76770477     1.04600
Cu1056     Cu  0.01050572  0.19755406  0.80011242     1.04300
C1057       C  0.97472733  0.18812297  0.75773005     0.93200
C1058       C  0.04678701  0.23925584  0.81038666     0.92300
C1059       C  0.04727866  0.18813894  0.75816745     0.84500
C1060       C  0.97362775  0.23946715  0.80944365     0.90700
N1061       N  0.85906301  0.08002766  0.70613521    -0.27400
N1062       N  0.87150596  0.08455211  0.72817320    -0.35200
C1063       C  0.86154077  0.06930572  0.74691556     0.01000
C1064       C  0.84169101  0.05468135  0.73632280     0.07000
C1065       C  0.84060616  0.06200825  0.71046167    -0.06100
H1066       H  0.86815046  0.06904398  0.76685610     0.07700
H1067       H  0.82762557  0.05451341  0.69576943     0.08900
Cu1068     Cu  0.90062782  0.11212745  0.73266719     0.44200
Cu1069     Cu  0.86760343  0.09834944  0.67087971     0.42000
Cu1070     Cu  0.90902720  0.15420280  0.67727817     0.43900
N1071       N  0.92595517  0.14352892  0.73242893    -0.34700
N1072       N  0.92848644  0.15937868  0.71238426    -0.29000
C1073       C  0.94596655  0.17787701  0.71834568    -0.05100
C1074       C  0.95493625  0.17336892  0.74328624     0.07100
C1075       C  0.94185029  0.15142819  0.75161262     0.00900
H1076       H  0.95202693  0.19317671  0.70531161     0.08600
H1077       H  0.94375417  0.14188760  0.77023652     0.07600
N1078       N  0.89129231  0.14362249  0.64245719    -0.36200
N1079       N  0.87740280  0.12224861  0.63952732    -0.28400
C1080       C  0.86933463  0.12076148  0.61461783    -0.03600
C1081       C  0.87825754  0.14244572  0.60140684     0.05000
C1082       C  0.89186720  0.15658229  0.61975289     0.03100
H1083       H  0.85658851  0.10587864  0.60709561     0.08200
H1084       H  0.90117100  0.17517415  0.61689947     0.07000
N1085       N  0.17574796  0.08932606  0.71959595    -0.27400
N1086       N  0.15924480  0.09209366  0.73904916    -0.35200
C1087       C  0.16615942  0.07610441  0.75856231     0.01000
C1088       C  0.18820485  0.06262182  0.75125128     0.07000
C1089       C  0.19379339  0.07154772  0.72640882    -0.06100
H1090       H  0.15578211  0.07432885  0.77672503     0.07700
H1091       H  0.20941949  0.06511375  0.71398167     0.08900
Cu1092     Cu  0.12785179  0.11748889  0.73825491     0.44200
Cu1093     Cu  0.17107255  0.10884224  0.68407759     0.42000
Cu1094     Cu  0.11261744  0.14991411  0.67807174     0.43900
N1095       N  0.09871787  0.14525725  0.73488629    -0.34700
N1096       N  0.09334927  0.15780478  0.71311824    -0.29000
C1097       C  0.07440042  0.17527422  0.71796201    -0.05100
C1098       C  0.06739747  0.17335999  0.74394327     0.07100
C1099       C  0.08318889  0.15406795  0.75395085     0.00900
H1100       H  0.06615027  0.18820584  0.70361247     0.08600
H1101       H  0.08362682  0.14716380  0.77378792     0.07600
N1102       N  0.13690472  0.13991690  0.64690023    -0.36200
N1103       N  0.15879184  0.12663851  0.64946801    -0.28400
C1104       C  0.17088276  0.12579959  0.62626146    -0.03600
C1105       C  0.15567874  0.13852267  0.60806812     0.05000
C1106       C  0.13426521  0.14716224  0.62182795     0.03100
H1107       H  0.18937638  0.11649214  0.62283193     0.08200
H1108       H  0.11848981  0.15887408  0.61439290     0.07000
O1109       O  0.22780522  0.03260603  0.82911693    -0.73000
O1110       O  0.19141549  0.97784630  0.78684482    -0.74000
O1111       O  0.22760849  0.97732913  0.82849836    -0.62600
O1112       O  0.19150211  0.03343731  0.78716362    -0.71000
O1113       O  0.22389188  0.03378564  0.75882997    -0.70600
O1114       O  0.26014363  0.97753416  0.80031546    -0.61800
O1115       O  0.22351508  0.97841456  0.75815860    -0.74300
O1116       O  0.26050528  0.03272489  0.80111278    -0.73100
Cu1117     Cu  0.20844862  0.00533880  0.80884083     1.04600
Cu1118     Cu  0.24313701  0.00564672  0.77859351     1.04300
C1119       C  0.25005950  0.04096018  0.82206298     0.93200
C1120       C  0.20171726  0.96944073  0.76591126     0.92300
C1121       C  0.24962098  0.96869129  0.82100255     0.84500
C1122       C  0.20189253  0.04237767  0.76644749     0.90700
N1123       N  0.17537518  0.92331797  0.71882415    -0.27400
N1124       N  0.16163045  0.91724808  0.73966087    -0.35200
C1125       C  0.16890901  0.93270499  0.75943717     0.01000
C1126       C  0.18831787  0.94913017  0.75078589     0.07000
C1127       C  0.19200504  0.94257917  0.72496136    -0.06100
H1128       H  0.16070379  0.93198381  0.77874846     0.07700
H1129       H  0.20533758  0.95156210  0.71147054     0.08900
Cu1130     Cu  0.13328329  0.88828850  0.74058415     0.44200
Cu1131     Cu  0.16944998  0.90625347  0.68252030     0.42000
Cu1132     Cu  0.11623824  0.85922077  0.67963722     0.43900
N1133       N  0.10543215  0.85903006  0.73712170    -0.34700
N1134       N  0.09956699  0.84783659  0.71478685    -0.29000
C1135       C  0.08098762  0.82984542  0.71890783    -0.05100
C1136       C  0.07456441  0.83000177  0.74504775     0.07100
C1137       C  0.09044942  0.84877338  0.75594850     0.00900
H1138       H  0.07216018  0.81819525  0.70385174     0.08600
H1139       H  0.09090886  0.85471118  0.77608148     0.07600
N1140       N  0.13646466  0.87264876  0.64719099    -0.36200
N1141       N  0.15658955  0.88857052  0.64835704    -0.28400
C1142       C  0.16692882  0.89084654  0.62443244    -0.03600
C1143       C  0.15224224  0.87624161  0.60732669     0.05000
C1144       C  0.13317702  0.86491173  0.62242302     0.03100
H1145       H  0.18426387  0.90178245  0.61993147     0.08200
H1146       H  0.11901533  0.85073602  0.61617410     0.07000
N1147       N  0.28560052  0.85189499  0.08905263    -0.25000
N1148       N  0.26357144  0.86361402  0.09509700    -0.35200
C1149       C  0.24435254  0.85402048  0.08017561     0.01000
C1150       C  0.25456161  0.83503974  0.06416734     0.07000
C1151       C  0.28078830  0.83418505  0.07034138    -0.06100
H1152       H  0.22429225  0.86010711  0.08124166     0.07700
H1153       H  0.29532405  0.82176938  0.06169555     0.08900
Cu1154     Cu  0.26018357  0.89128910  0.12439775     0.44200
Cu1155     Cu  0.32109954  0.86101569  0.10697933     0.42000
Cu1156     Cu  0.31633538  0.90458434  0.16362074     0.43900
N1157       N  0.25990787  0.91731627  0.15536639    -0.34700
N1158       N  0.28024087  0.92189541  0.17034917    -0.29000
C1159       C  0.27357710  0.93963483  0.18846666    -0.05100
C1160       C  0.24786843  0.94666909  0.18448047     0.07100
C1161       C  0.23992895  0.93211202  0.16333865     0.00900
H1162       H  0.28663977  0.94733637  0.20298113     0.08600
H1163       H  0.22098561  0.93236475  0.15428235     0.07600
N1164       N  0.35073955  0.88725792  0.15084139    -0.36200
N1165       N  0.35287082  0.87263985  0.12979351    -0.28400
C1166       C  0.37787744  0.86521716  0.12724515    -0.03600
C1167       C  0.39200522  0.87538161  0.14775918     0.05000
C1168       C  0.37412093  0.88896158  0.16242481     0.03100
H1169       H  0.38496290  0.85217006  0.11240681     0.08200
H1170       H  0.37775801  0.89900121  0.18049454     0.07000
O1171       O  0.16710826  0.02743967  0.22491264    -0.73000
O1172       O  0.21106294  0.97426953  0.18832983    -0.74000
O1173       O  0.16924544  0.97242294  0.22417339    -0.62600
O1174       O  0.20883351  0.02962270  0.18890631    -0.71000
O1175       O  0.23724469  0.03045357  0.22127672    -0.70600
O1176       O  0.19704706  0.97295209  0.25709354    -0.61800
O1177       O  0.23957937  0.97492683  0.22060469    -0.74300
O1178       O  0.19485996  0.02808644  0.25786353    -0.73100
Cu1179     Cu  0.18817283  0.00091964  0.20548416     1.04600
Cu1180     Cu  0.21823224  0.00163090  0.24037990     1.04300
C1181       C  0.17379387  0.03589398  0.24725074     0.93200
C1182       C  0.23219140  0.96619903  0.19854336     0.92300
C1183       C  0.17659309  0.96391454  0.24628236     0.84500
C1184       C  0.22924497  0.03904467  0.19935092     0.90700
N1185       N  0.14372417  0.91780297  0.28899955    -0.27400
N1186       N  0.13137834  0.91345715  0.26689042    -0.35200
C1187       C  0.14127575  0.92910665  0.24845094     0.01000
C1188       C  0.16097923  0.94377338  0.25933493     0.07000
C1189       C  0.16201005  0.93610274  0.28508852    -0.06100
H1190       H  0.13474024  0.92961286  0.22849240     0.07700
H1191       H  0.17485236  0.94348841  0.29995959     0.08900
Cu1192     Cu  0.10234768  0.88556221  0.26212522     0.44200
Cu1193     Cu  0.13497070  0.89865590  0.32349565     0.42000
Cu1194     Cu  0.08928848  0.84482395  0.31731598     0.43900
N1195       N  0.07604613  0.85472857  0.26104948    -0.34700
N1196       N  0.07170048  0.83940076  0.28118770    -0.29000
C1197       C  0.05407573  0.82129557  0.27442017    -0.05100
C1198       C  0.04680891  0.82550533  0.24883666     0.07100
C1199       C  0.06113373  0.84689129  0.24100515     0.00900
H1200       H  0.04664072  0.80653167  0.28735922     0.08600
H1201       H  0.06064379  0.85616987  0.22216340     0.07600
N1202       N  0.10815428  0.85481003  0.35178356    -0.36200
N1203       N  0.12383065  0.87499543  0.35429944    -0.28400
C1204       C  0.13268134  0.87588281  0.37890644    -0.03600
C1205       C  0.12229798  0.85515459  0.39241312     0.05000
C1206       C  0.10708934  0.84206138  0.37459554     0.03100
H1207       H  0.14678913  0.88970779  0.38601514     0.08200
H1208       H  0.09644429  0.82427097  0.37783085     0.07000
N1209       N  0.27906601  0.15773990  0.09264451    -0.27400
N1210       N  0.25746609  0.14451871  0.09683166    -0.35200
C1211       C  0.23869133  0.15378446  0.08108440     0.01000
C1212       C  0.24880121  0.17405514  0.06654063     0.07000
C1213       C  0.27445199  0.17601911  0.07443933    -0.06100
H1214       H  0.21905431  0.14641634  0.08038894     0.07700
H1215       H  0.28885967  0.18938031  0.06708276     0.08900
Cu1216     Cu  0.25432877  0.11519574  0.12484391     0.44200
Cu1217     Cu  0.31410468  0.14947111  0.11142843     0.42000
Cu1218     Cu  0.31028891  0.10468362  0.16631153     0.43900
N1219       N  0.25465613  0.08941748  0.15631103    -0.34700
N1220       N  0.27472425  0.08626609  0.17204401    -0.29000
C1221       C  0.26862346  0.06845020  0.19026456    -0.05100
C1222       C  0.24360084  0.05977158  0.18563294     0.07100
C1223       C  0.23539300  0.07350296  0.16397571     0.00900
H1224       H  0.28175486  0.06165195  0.20518352     0.08600
H1225       H  0.21684069  0.07181229  0.15428760     0.07600
N1226       N  0.34457051  0.12213379  0.15374102    -0.36200
N1227       N  0.34622152  0.13759843  0.13327025    -0.28400
C1228       C  0.37108890  0.14526138  0.13048133    -0.03600
C1229       C  0.38572170  0.13412145  0.15010080     0.05000
C1230       C  0.36821448  0.11992967  0.16467342     0.03100
H1231       H  0.37774556  0.15907524  0.11612697     0.08200
H1232       H  0.37224524  0.10933355  0.18235985     0.07000
N1233       N  0.28868706  0.16181925  0.92897238    -0.27400
N1234       N  0.26939049  0.14509832  0.92634322    -0.35200
C1235       C  0.24973785  0.15222719  0.94200150     0.01000
C1236       C  0.25689882  0.17456801  0.95506402     0.07000
C1237       C  0.28172438  0.18008630  0.94635494    -0.06100
H1238       H  0.23140079  0.14211890  0.94343344     0.07700
H1239       H  0.29379613  0.19624042  0.95213122     0.08900
Cu1240     Cu  0.26978056  0.11425106  0.90030678     0.44200
Cu1241     Cu  0.32360236  0.15903591  0.90853292     0.42000
Cu1242     Cu  0.32860176  0.10523120  0.86313278     0.43900
N1243       N  0.27291489  0.08816739  0.86966077    -0.34700
N1244       N  0.29418032  0.08526025  0.85559979    -0.29000
C1245       C  0.28932470  0.06823096  0.83633898    -0.05100
C1246       C  0.26383501  0.05994442  0.83850264     0.07100
C1247       C  0.25408775  0.07291636  0.85989938     0.00900
H1248       H  0.30332404  0.06228115  0.82188972     0.08600
H1249       H  0.23460633  0.07165645  0.86760224     0.07600
N1250       N  0.35937154  0.12998462  0.87208865    -0.36200
N1251       N  0.35713424  0.15050332  0.88736533    -0.28400
C1252       C  0.37966694  0.16379937  0.88701603    -0.03600
C1253       C  0.39704906  0.15069047  0.87128417     0.05000
C1254       C  0.38356909  0.12933635  0.86221505     0.03100
H1255       H  0.38317356  0.18162151  0.89751613     0.08200
H1256       H  0.39049019  0.11498511  0.84855381     0.07000
O1257       O  0.21445851  0.18070697  0.03610648    -0.73000
O1258       O  0.18051257  0.21968877  0.97710681    -0.74000
O1259       O  0.21915029  0.18040710  0.98097769    -0.62600
O1260       O  0.17560767  0.21997714  0.03215904    -0.71000
O1261       O  0.20576846  0.25056539  0.03488005    -0.70600
O1262       O  0.24947455  0.21089842  0.98292392    -0.61800
O1263       O  0.21038790  0.25055671  0.97974643    -0.74300
O1264       O  0.24526500  0.21068731  0.03808391    -0.73100
Cu1265     Cu  0.19640270  0.19918963  0.00653622     1.04600
Cu1266     Cu  0.22881395  0.23175860  0.00904688     1.04300
C1267       C  0.23550192  0.18928406  0.04606412     0.93200
C1268       C  0.18992261  0.24125810  0.96922409     0.92300
C1269       C  0.24114610  0.18934635  0.97386477     0.84500
C1270       C  0.18354863  0.24157306  0.04135284     0.90700
N1271       N  0.09381546  0.28324650  0.83994016    -0.27400
N1272       N  0.09636053  0.26278849  0.85522190    -0.35200
C1273       C  0.08017726  0.24401938  0.84695454     0.01000
C1274       C  0.06689665  0.25308034  0.82536031     0.07000
C1275       C  0.07608397  0.27801005  0.82143366    -0.06100
H1276       H  0.07817648  0.22518845  0.85602909     0.07700
H1277       H  0.06997935  0.29153088  0.80656246     0.08900
Cu1278     Cu  0.12194370  0.26182015  0.88656341     0.44200
Cu1279     Cu  0.11369028  0.31773265  0.84621835     0.42000
Cu1280     Cu  0.15839683  0.32136956  0.90082022     0.43900
N1281       N  0.15006515  0.26487311  0.91551142    -0.34700
N1282       N  0.16387743  0.28599162  0.92032431    -0.29000
C1283       C  0.18057579  0.28081344  0.93988251    -0.05100
C1284       C  0.17685194  0.25536604  0.94788457     0.07100
C1285       C  0.15736246  0.24595052  0.93200662     0.00900
H1286       H  0.19402889  0.29469330  0.94803036     0.08600
H1287       H  0.14905860  0.22668195  0.93239225     0.07600
N1288       N  0.14798381  0.35348212  0.87796882    -0.36200
N1289       N  0.13246940  0.35154539  0.85757374    -0.28400
C1290       C  0.13096878  0.37472334  0.84566951    -0.03600
C1291       C  0.14571555  0.39237852  0.85942651     0.05000
C1292       C  0.15634277  0.37826829  0.87977482     0.03100
H1293       H  0.12030844  0.37834710  0.82793161     0.08200
H1294       H  0.17023586  0.38515043  0.89393517     0.07000
N1295       N  0.06768554  0.28459697  0.15225029    -0.27400
N1296       N  0.07232246  0.26430763  0.13725866    -0.35200
C1297       C  0.05722432  0.24441766  0.14501620     0.01000
C1298       C  0.04258859  0.25249001  0.16607691     0.07000
C1299       C  0.04972837  0.27807652  0.17010613    -0.06100
H1300       H  0.05720393  0.22536400  0.13623085     0.07700
H1301       H  0.04229369  0.29106220  0.18481033     0.08900
Cu1302     Cu  0.10059816  0.26421273  0.10829217     0.44200
Cu1303     Cu  0.08597944  0.32028378  0.14734845     0.42000
Cu1304     Cu  0.13957724  0.32227718  0.10098694     0.43900
N1305       N  0.13358023  0.26638183  0.08493134    -0.34700
N1306       N  0.14841926  0.28721840  0.08286465    -0.29000
C1307       C  0.16880470  0.28164155  0.06740346    -0.05100
C1308       C  0.16655060  0.25611145  0.05925873     0.07100
C1309       C  0.14396629  0.24713710  0.07068673     0.00900
H1310       H  0.18389660  0.29525343  0.06218817     0.08600
H1311       H  0.13575276  0.22790753  0.06892817     0.07600
N1312       N  0.12584079  0.35452872  0.12116150    -0.36200
N1313       N  0.10638539  0.35386167  0.13790177    -0.28400
C1314       C  0.10359755  0.37754314  0.14860700    -0.03600
C1315       C  0.12191578  0.39396008  0.13788034     0.05000
C1316       C  0.13592141  0.37861151  0.12089953     0.03100
H1317       H  0.09033910  0.38202911  0.16424743     0.08200
H1318       H  0.15313968  0.38416789  0.11026733     0.07000
N1319       N  0.06752202  0.15852785  0.28154597    -0.27400
N1320       N  0.07109307  0.14223956  0.26203157    -0.35200
C1321       C  0.05610260  0.14959647  0.24189085     0.01000
C1322       C  0.04250674  0.17163303  0.24898330     0.07000
C1323       C  0.05022816  0.17675713  0.27423950    -0.06100
H1324       H  0.05515159  0.13960147  0.22345734     0.07700
H1325       H  0.04347299  0.19234369  0.28654606     0.08900
Cu1326     Cu  0.09661706  0.11097515  0.26340645     0.44200
Cu1327     Cu  0.08582753  0.15473858  0.31759505     0.42000
Cu1328     Cu  0.13015710  0.10037054  0.32451818     0.43900
N1329       N  0.12600616  0.08370735  0.26835025    -0.34700
N1330       N  0.13879958  0.08021116  0.29035950    -0.29000
C1331       C  0.15785106  0.06268879  0.28637318    -0.05100
C1332       C  0.15684156  0.05469993  0.26068738     0.07100
C1333       C  0.13632945  0.06833127  0.24994516     0.00900
H1334       H  0.17147546  0.05633637  0.30103893     0.08600
H1335       H  0.12978279  0.06761935  0.22999594     0.07600
N1336       N  0.12052571  0.12540189  0.35497185    -0.36200
N1337       N  0.10532049  0.14591413  0.35213286    -0.28400
C1338       C  0.10549562  0.15967673  0.37439601    -0.03600
C1339       C  0.12101400  0.14691528  0.39229659     0.05000
C1340       C  0.13031518  0.12535952  0.37926052     0.03100
H1341       H  0.09566379  0.17801797  0.37711165     0.08200
H1342       H  0.14446388  0.11156169  0.38637999     0.07000
N1343       N  0.83929354  0.28174706  0.06461198    -0.27400
N1344       N  0.85166865  0.26020016  0.07109554    -0.35200
C1345       C  0.84285756  0.24052226  0.05640166     0.01000
C1346       C  0.82375059  0.24995785  0.04007736     0.07000
C1347       C  0.82195941  0.27618130  0.04577863    -0.06100
H1348       H  0.84954103  0.22067316  0.05786348     0.07700
H1349       H  0.80910522  0.29017821  0.03685169     0.08900
Cu1350     Cu  0.87873529  0.25774352  0.10083070     0.44200
Cu1351     Cu  0.84633956  0.31751657  0.08243177     0.42000
Cu1352     Cu  0.88581951  0.31408539  0.14127765     0.43900
N1353       N  0.90298269  0.25892052  0.13296361    -0.34700
N1354       N  0.90518868  0.27938609  0.14825074    -0.29000
C1355       C  0.92233593  0.27399032  0.16725355    -0.05100
C1356       C  0.93140232  0.24896870  0.16360518     0.07100
C1357       C  0.91874010  0.24001461  0.14169650     0.00900
H1358       H  0.92819770  0.28747514  0.18222729     0.08600
H1359       H  0.92091595  0.22120528  0.13266035     0.07600
N1360       N  0.86741126  0.34757183  0.12824028    -0.36200
N1361       N  0.85418191  0.34940394  0.10627448    -0.28400
C1362       C  0.84496856  0.37382415  0.10396559    -0.03600
C1363       C  0.85266161  0.38785778  0.12556418     0.05000
C1364       C  0.86652684  0.37049990  0.14062527     0.03100
H1365       H  0.83217066  0.38034972  0.08863238     0.08200
H1366       H  0.87471646  0.37406836  0.15963681     0.07000
O1367       O  0.96018693  0.17526151  0.20969556    -0.73000
O1368       O  0.01577245  0.21528628  0.17200677    -0.74000
O1369       O  0.01547204  0.17652156  0.21171583    -0.62600
O1370       O  0.96061137  0.21390982  0.17039980    -0.71000
O1371       O  0.95874505  0.24452593  0.20063262    -0.70600
O1372       O  0.01389600  0.20728562  0.24179528    -0.61800
O1373       O  0.01375245  0.24626033  0.20183517    -0.74300
O1374       O  0.95887866  0.20546565  0.24035506    -0.73100
Cu1375     Cu  0.98809692  0.19418490  0.18992498     1.04600
Cu1376     Cu  0.98627566  0.22696651  0.22221237     1.04300
C1377       C  0.95093326  0.18389820  0.23101592     0.93200
C1378       C  0.02321071  0.23727278  0.18071762     0.92300
C1379       C  0.02313888  0.18586950  0.23339160     0.84500
C1380       C  0.95112107  0.23514208  0.17897545     0.90700
N1381       N  0.82716159  0.08056412  0.27259244    -0.27400
N1382       N  0.84228937  0.08451655  0.25222484    -0.35200
C1383       C  0.83444770  0.06923553  0.23256858     0.01000
C1384       C  0.81322501  0.05498838  0.24071050     0.07000
C1385       C  0.80906088  0.06270556  0.26620631    -0.06100
H1386       H  0.84375849  0.06833755  0.21377464     0.07700
H1387       H  0.79452817  0.05525446  0.27938341     0.08900
Cu1388     Cu  0.87320952  0.11035979  0.25160556     0.44200
Cu1389     Cu  0.83368491  0.09847831  0.30864645     0.42000
Cu1390     Cu  0.88936885  0.14249164  0.31152662     0.43900
N1391       N  0.90117152  0.13926188  0.25423912    -0.34700
N1392       N  0.90655771  0.15173795  0.27600476    -0.29000
C1393       C  0.92464556  0.16996938  0.27102803    -0.05100
C1394       C  0.93116473  0.16861473  0.24496663     0.07100
C1395       C  0.91594694  0.14889229  0.23496165     0.00900
H1396       H  0.93286813  0.18283100  0.28542472     0.08600
H1397       H  0.91553410  0.14211758  0.21509271     0.07600
N1398       N  0.86796939  0.13113762  0.34403278    -0.36200
N1399       N  0.84706701  0.11624153  0.34284118    -0.28400
C1400       C  0.83637572  0.11490255  0.36670216    -0.03600
C1401       C  0.85157037  0.12901551  0.38382271     0.05000
C1402       C  0.87132544  0.13917261  0.36873084     0.03100
H1403       H  0.81847953  0.10489999  0.37116872     0.08200
H1404       H  0.88616537  0.15265878  0.37493705     0.07000
loop_ 
_geom_bond_atom_site_label_1 
_geom_bond_atom_site_label_2 
_geom_bond_distance 
_geom_bond_site_symmetry_2 
_ccdc_geom_bond_type 
N1            N2   1.324       .  A
N1            C5   1.352       .  A
N1           Cu9   2.105       .  S
N2            C3   1.341       .  A
N2           Cu8   2.058       .  S
C3            C4   1.375       .  A
C3            H6   1.082       .  S
C4            C5   1.388       .  A
C4         C1315   1.469       .  S
C5            H7   1.082       .  S
Cu8          N11   2.058       .  S
Cu9          N19   2.105       .  S
Cu10         N12   2.074       .  S
Cu10         N18   2.075       .  S
N11          N12   1.320       .  A
N11          C15   1.343       .  A
N12          C13   1.347       .  A
C13          C14   1.383       .  A
C13          H16   1.082       .  S
C14          C15   1.380       .  A
C14         C345   1.464       .  S
C15          H17   1.082       .  S
N18          N19   1.325       .  A
N18          C22   1.343       .  A
N19          C20   1.352       .  A
C20          C21   1.388       .  A
C20          H23   1.082       .  S
C21          C22   1.379       .  A
C21         C833   1.475       .  S
C22          H24   1.082       .  S
N25          N26   1.324       .  A
N25          C29   1.352       .  A
N25         Cu33   2.109       .  S
N26          C27   1.345       .  A
N26         Cu32   2.068       .  S
C27          C28   1.379       .  A
C27          H30   1.082       .  S
C28          C29   1.389       .  A
C28         C957   1.476       .  S
C29          H31   1.082       .  S
Cu32         N35   2.067       .  S
Cu33         N43   2.109       .  S
Cu34         N36   2.064       .  S
Cu34         N42   2.064       .  S
N35          N36   1.321       .  A
N35          C39   1.343       .  A
N36          C37   1.345       .  A
C37          C38   1.380       .  A
C37          H40   1.082       .  S
C38          C39   1.379       .  A
C38         C537   1.461       .  S
C39          H41   1.082       .  S
N42          N43   1.324       .  A
N42          C46   1.343       .  A
N43          C44   1.352       .  A
C44          C45   1.389       .  A
C44          H47   1.082       .  S
C45          C46   1.377       .  A
C45        C1229   1.473       .  S
C46          H48   1.082       .  S
N49          N50   1.325       .  A
N49          C53   1.352       .  A
N49         Cu57   2.107       .  S
N50          C51   1.347       .  A
N50         Cu56   2.088       .  S
C51          C52   1.383       .  A
C51          H54   1.082       .  S
C52          C53   1.389       .  A
C52        C1105   1.481       .  S
C53          H55   1.082       .  S
Cu56         N59   2.087       .  S
Cu57         N67   2.106       .  S
Cu58         N60   2.079       .  S
Cu58         N66   2.078       .  S
N59          N60   1.322       .  A
N59          C63   1.349       .  A
N60          C61   1.346       .  A
C61          C62   1.383       .  A
C61          H64   1.082       .  S
C62          C63   1.385       .  A
C62         C297   1.473       .  S
C63          H65   1.082       .  S
N66          N67   1.324       .  A
N66          C70   1.346       .  A
N67          C68   1.352       .  A
C68          C69   1.389       .  A
C68          H71   1.082       .  S
C69          C70   1.381       .  A
C69        C1339   1.477       .  S
C70          H72   1.082       .  S
N73          N74   1.323       .  A
N73          C77   1.348       .  A
N73         Cu81   2.088       .  S
N74          C75   1.345       .  A
N74         Cu80   2.072       .  S
C75          C76   1.381       .  A
C75          H78   1.082       .  S
C76          C77   1.384       .  A
C76         C995   1.470       .  S
C77          H79   1.082       .  S
Cu80         N83   2.074       .  S
Cu81         N91   2.087       .  S
Cu82         N84   2.079       .  S
Cu82         N90   2.079       .  S
N83          N84   1.324       .  A
N83          C87   1.345       .  A
N84          C85   1.345       .  A
C85          C86   1.381       .  A
C85          H88   1.082       .  S
C86          C87   1.381       .  A
C86         C561   1.467       .  S
C87          H89   1.082       .  S
N90          N91   1.322       .  A
N90          C94   1.347       .  A
N91          C92   1.348       .  A
C92          C93   1.386       .  A
C92          H95   1.082       .  S
C93          C94   1.384       .  A
C93        C1253   1.475       .  S
C94          H96   1.082       .  S
N97          N98   1.325       .  A
N97         C101   1.353       .  A
N97        Cu105   2.113       .  S
N98          C99   1.343       .  A
N98        Cu104   2.070       .  S
C99         C100   1.377       .  A
C99         H102   1.082       .  S
C100        C101   1.389       .  A
C100       C1291   1.475       .  S
C101        H103   1.082       .  S
Cu104       N107   2.069       .  S
Cu105       N115   2.112       .  S
Cu106       N108   2.056       .  S
Cu106       N114   2.058       .  S
N107        N108   1.320       .  A
N107        C111   1.346       .  A
N108        C109   1.341       .  A
C109        C110   1.379       .  A
C109        H112   1.082       .  S
C110        C111   1.382       .  A
C110        C369   1.461       .  S
C111        H113   1.082       .  S
N114        N115   1.324       .  A
N114        C118   1.342       .  A
N115        C116   1.352       .  A
C116        C117   1.390       .  A
C116        H119   1.082       .  S
C117        C118   1.377       .  A
C117        C809   1.473       .  S
C118        H120   1.082       .  S
N121        N122   1.323       .  A
N121        C125   1.351       .  A
N121       Cu129   2.095       .  S
N122        C123   1.345       .  A
N122       Cu128   2.074       .  S
C123        C124   1.381       .  A
C123        H126   1.082       .  S
C124        C125   1.388       .  A
C124       C1167   1.476       .  S
C125        H127   1.082       .  S
Cu128       N131   2.074       .  S
Cu129       N139   2.095       .  S
Cu130       N132   2.067       .  S
Cu130       N138   2.067       .  S
N131        N132   1.322       .  A
N131        C135   1.345       .  A
N132        C133   1.345       .  A
C133        C134   1.381       .  A
C133        H136   1.082       .  S
C134        C135   1.382       .  A
C134        C417   1.465       .  S
C135        H137   1.082       .  S
N138        N139   1.323       .  A
N138        C142   1.344       .  A
N139        C140   1.349       .  A
C140        C141   1.385       .  A
C140        H143   1.082       .  S
C141        C142   1.379       .  A
C141        C933   1.470       .  S
C142        H144   1.082       .  S
N145        N146   1.325       .  A
N145        C149   1.354       .  A
N145       Cu153   2.116       .  S
N146        C147   1.344       .  A
N146       Cu152   2.077       .  S
C147        C148   1.380       .  A
C147        H150   1.082       .  S
C148        C149   1.390       .  A
C148        C871   1.480       .  S
C149        H151   1.082       .  S
Cu152       N155   2.075       .  S
Cu153       N163   2.115       .  S
Cu154       N156   2.060       .  S
Cu154       N162   2.061       .  S
N155        N156   1.320       .  A
N155        C159   1.346       .  A
N156        C157   1.345       .  A
C157        C158   1.380       .  A
C157        H160   1.082       .  S
C158        C159   1.382       .  A
C158        C489   1.463       .  S
C159        H161   1.082       .  S
N162        N163   1.325       .  A
N162        C166   1.341       .  A
N163        C164   1.354       .  A
C164        C165   1.390       .  A
C164        H167   1.082       .  S
C165        C166   1.376       .  A
C165       C1363   1.473       .  S
C166        H168   1.083       .  S
N169        N170   1.324       .  A
N169        C173   1.349       .  A
N169       Cu177   2.096       .  S
N170        C171   1.345       .  A
N170       Cu176   2.074       .  S
C171        C172   1.379       .  A
C171        H174   1.082       .  S
C172        C173   1.385       .  A
C172       C1205   1.471       .  S
C173        H175   1.082       .  S
Cu176       N179   2.074       .  S
Cu177       N187   2.096       .  S
Cu178       N180   2.073       .  S
Cu178       N186   2.073       .  S
N179        N180   1.322       .  A
N179        C183   1.346       .  A
N180        C181   1.345       .  A
C181        C182   1.382       .  A
C181        H184   1.082       .  S
C182        C183   1.383       .  A
C182        C321   1.468       .  S
C183        H185   1.082       .  S
N186        N187   1.323       .  A
N186        C190   1.344       .  A
N187        C188   1.350       .  A
C188        C189   1.387       .  A
C188        H191   1.082       .  S
C189        C190   1.380       .  A
C189       C1143   1.473       .  S
C190        H192   1.082       .  S
O193       Cu201   1.972       .  S
O193        C203   1.274       .  A
O194       Cu201   1.974       .  S
O194        C204   1.274       .  A
O195       Cu201   1.969       .  S
O195        C205   1.274       .  A
O196       Cu201   1.973       .  S
O196        C206   1.274       .  A
O197       Cu202   2.035       .  S
O197        C206   1.280       .  A
O198       Cu202   2.041       .  S
O198        C205   1.280       .  A
O199       Cu202   2.041       .  S
O199        C204   1.281       .  A
O200       Cu202   2.037       .  S
O200        C203   1.280       .  A
Cu201      Cu202   2.374       .  S
C203        C352   1.466       .  S
C204        C496   1.469       .  S
C205        C544   1.468       .  S
C206        C434   1.466       .  S
O207       Cu215   2.033       .  S
O207        C217   1.279       .  A
O208       Cu215   2.034       .  S
O208        C218   1.280       .  A
O209       Cu215   2.045       .  S
O209        C219   1.280       .  A
O210       Cu215   2.043       .  S
O210        C220   1.281       .  A
O211       Cu216   1.983       .  S
O211        C220   1.275       .  A
O212       Cu216   1.977       .  S
O212        C219   1.275       .  A
O213       Cu216   1.977       .  S
O213        C218   1.274       .  A
O214       Cu216   1.975       .  S
O214        C217   1.274       .  A
Cu215      Cu216   2.373       .  S
C217        C400   1.465       .  S
C218        C520   1.467       .  S
C219        C328   1.472       .  S
C220        C472   1.473       .  S
O221       Cu229   2.046       .  S
O221        C231   1.281       .  A
O222       Cu229   2.047       .  S
O222        C232   1.281       .  A
O223       Cu229   2.040       .  S
O223        C233   1.280       .  A
O224       Cu229   2.046       .  S
O224        C234   1.280       .  A
O225       Cu230   1.983       .  S
O225        C234   1.276       .  A
O226       Cu230   1.987       .  S
O226        C233   1.276       .  A
O227       Cu230   1.973       .  S
O227        C232   1.274       .  A
O228       Cu230   1.975       .  S
O228        C231   1.274       .  A
Cu229      Cu230   2.372       .  S
C231        C530   1.471       .  S
C232        C554   1.471       .  S
C233        C280   1.474       .  S
C234        C458   1.474       .  S
O235       Cu243   1.974       .  S
O235        C245   1.274       .  A
O236       Cu243   1.972       .  S
O236        C246   1.274       .  A
O237       Cu243   1.975       .  S
O237        C247   1.275       .  A
O238       Cu243   1.975       .  S
O238        C248   1.275       .  A
O239       Cu244   2.035       .  S
O239        C248   1.280       .  A
O240       Cu244   2.029       .  S
O240        C247   1.279       .  A
O241       Cu244   2.040       .  S
O241        C246   1.281       .  A
O242       Cu244   2.046       .  S
O242        C245   1.281       .  A
Cu243      Cu244   2.375       .  S
C245        C482   1.472       .  S
C246        C506   1.466       .  S
C247        C376   1.465       .  S
C248        C448   1.467       .  S
O249       Cu257   1.974       .  S
O249        C259   1.274       .  A
O250       Cu257   1.975       .  S
O250        C260   1.274       .  A
O251       Cu257   1.979       .  S
O251        C261   1.275       .  A
O252       Cu257   1.982       .  S
O252        C262   1.275       .  A
O253       Cu258   2.036       .  S
O253        C262   1.280       .  A
O254       Cu258   2.031       .  S
O254        C261   1.279       .  A
O255       Cu258   2.039       .  S
O255        C260   1.280       .  A
O256       Cu258   2.043       .  S
O256        C259   1.281       .  A
Cu257      Cu258   2.374       .  S
C259        C314   1.470       .  S
C260        C386   1.469       .  S
C261        C424   1.467       .  S
C262        C410   1.469       .  S
O263       Cu271   1.969       .  S
O263        C273   1.274       .  A
O264       Cu271   1.969       .  S
O264        C274   1.274       .  A
O265       Cu271   1.968       .  S
O265        C275   1.274       .  A
O266       Cu271   1.967       .  S
O266        C276   1.273       .  A
O267       Cu272   2.042       .  S
O267        C276   1.281       .  A
O268       Cu272   2.044       .  S
O268        C275   1.281       .  A
O269       Cu272   2.051       .  S
O269        C274   1.281       .  A
O270       Cu272   2.044       .  S
O270        C273   1.281       .  A
Cu271      Cu272   2.373       .  S
C273        C290   1.469       .  S
C274        C304   1.472       .  S
C275        C362   1.469       .  S
C276        C338   1.468       .  S
N277        N278   1.319       .  A
N277        C281   1.353       .  A
N277       Cu285   2.096       .  S
N278        C279   1.339       .  A
N278       Cu284   2.048       .  S
C279        C280   1.379       .  A
C279        H282   1.082       .  S
C280        C281   1.391       .  A
C281        H283   1.081       .  S
Cu284       N287   2.048       .  S
Cu285       N295   2.099       .  S
Cu286       N288   2.088       .  S
Cu286       N294   2.092       .  S
N287        N288   1.320       .  A
N287        C291   1.335       .  A
N288        C289   1.354       .  A
C289        C290   1.390       .  A
C289        H292   1.081       .  S
C290        C291   1.377       .  A
C291        H293   1.082       .  S
N294        N295   1.328       .  A
N294        C298   1.346       .  A
N295        C296   1.349       .  A
C296        C297   1.383       .  A
C296        H299   1.082       .  S
C297        C298   1.381       .  A
C298        H300   1.082       .  S
N301        N302   1.319       .  A
N301        C305   1.356       .  A
N301       Cu309   2.091       .  S
N302        C303   1.334       .  A
N302       Cu308   2.042       .  S
C303        C304   1.377       .  A
C303        H306   1.083       .  S
C304        C305   1.393       .  A
C305        H307   1.081       .  S
Cu308       N311   2.042       .  S
Cu309       N319   2.097       .  S
Cu310       N312   2.084       .  S
Cu310       N318   2.089       .  S
N311        N312   1.318       .  A
N311        C315   1.336       .  A
N312        C313   1.354       .  A
C313        C314   1.391       .  A
C313        H316   1.081       .  S
C314        C315   1.378       .  A
C315        H317   1.082       .  S
N318        N319   1.329       .  A
N318        C322   1.345       .  A
N319        C320   1.347       .  A
C320        C321   1.381       .  A
C320        H323   1.082       .  S
C321        C322   1.379       .  A
C322        H324   1.082       .  S
N325        N326   1.319       .  A
N325        C329   1.356       .  A
N325       Cu333   2.094       .  S
N326        C327   1.334       .  A
N326       Cu332   2.039       .  S
C327        C328   1.376       .  A
C327        H330   1.082       .  S
C328        C329   1.394       .  A
C329        H331   1.081       .  S
Cu332       N335   2.039       .  S
Cu333       N343   2.099       .  S
Cu334       N336   2.077       .  S
Cu334       N342   2.083       .  S
N335        N336   1.317       .  A
N335        C339   1.334       .  A
N336        C337   1.353       .  A
C337        C338   1.390       .  A
C337        H340   1.081       .  S
C338        C339   1.378       .  A
C339        H341   1.082       .  S
N342        N343   1.329       .  A
N342        C346   1.343       .  A
N343        C344   1.348       .  A
C344        C345   1.381       .  A
C344        H347   1.082       .  S
C345        C346   1.377       .  A
C346        H348   1.082       .  S
N349        N350   1.317       .  A
N349        C353   1.351       .  A
N349       Cu357   2.069       .  S
N350        C351   1.336       .  A
N350       Cu356   2.045       .  S
C351        C352   1.379       .  A
C351        H354   1.082       .  S
C352        C353   1.388       .  A
C353        H355   1.081       .  S
Cu356       N359   2.045       .  S
Cu357       N367   2.073       .  S
Cu358       N360   2.085       .  S
Cu358       N366   2.089       .  S
N359        N360   1.319       .  A
N359        C363   1.334       .  A
N360        C361   1.354       .  A
C361        C362   1.391       .  A
C361        H364   1.081       .  S
C362        C363   1.377       .  A
C363        H365   1.082       .  S
N366        N367   1.328       .  A
N366        C370   1.347       .  A
N367        C368   1.341       .  A
C368        C369   1.375       .  A
C368        H371   1.082       .  S
C369        C370   1.380       .  A
C370        H372   1.082       .  S
N373        N374   1.318       .  A
N373        C377   1.352       .  A
N373       Cu381   2.074       .  S
N374        C375   1.335       .  A
N374       Cu380   2.040       .  S
C375        C376   1.376       .  A
C375        H378   1.082       .  S
C376        C377   1.389       .  A
C377        H379   1.081       .  S
Cu380       N383   2.041       .  S
Cu381       N391   2.078       .  S
Cu382       N384   2.082       .  S
Cu382       N390   2.087       .  S
N383        N384   1.318       .  A
N383        C387   1.335       .  A
N384        C385   1.353       .  A
C385        C386   1.390       .  A
C385        H388   1.081       .  S
C386        C387   1.377       .  A
C387        H389   1.082       .  S
N390        N391   1.328       .  A
N390        C394   1.346       .  A
N391        C392   1.343       .  A
C392        C393   1.377       .  A
C392        H395   1.082       .  S
C393        C394   1.380       .  A
C393        C578   1.463       .  S
C394        H396   1.082       .  S
N397        N398   1.320       .  A
N397        C401   1.351       .  A
N397       Cu405   2.076       .  S
N398        C399   1.336       .  A
N398       Cu404   2.050       .  S
C399        C400   1.377       .  A
C399        H402   1.082       .  S
C400        C401   1.387       .  A
C401        H403   1.081       .  S
Cu404       N407   2.051       .  S
Cu405       N415   2.079       .  S
Cu406       N408   2.079       .  S
Cu406       N414   2.082       .  S
N407        N408   1.319       .  A
N407        C411   1.338       .  A
N408        C409   1.351       .  A
C409        C410   1.388       .  A
C409        H412   1.081       .  S
C410        C411   1.379       .  A
C411        H413   1.082       .  S
N414        N415   1.327       .  A
N414        C418   1.344       .  A
N415        C416   1.345       .  A
C416        C417   1.380       .  A
C416        H419   1.082       .  S
C417        C418   1.380       .  A
C418        H420   1.082       .  S
N421        N422   1.319       .  A
N421        C425   1.353       .  A
N421       Cu429   2.086       .  S
N422        C423   1.335       .  A
N422       Cu428   2.039       .  S
C423        C424   1.376       .  A
C423        H426   1.082       .  S
C424        C425   1.390       .  A
C425        H427   1.081       .  S
Cu428       N431   2.040       .  S
Cu429       N439   2.090       .  S
Cu430       N432   2.082       .  S
Cu430       N438   2.085       .  S
N431        N432   1.319       .  A
N431        C435   1.335       .  A
N432        C433   1.352       .  A
C433        C434   1.389       .  A
C433        H436   1.081       .  S
C434        C435   1.377       .  A
C435        H437   1.082       .  S
N438        N439   1.328       .  A
N438        C442   1.346       .  A
N439        C440   1.346       .  A
C440        C441   1.381       .  A
C440        H443   1.082       .  S
C441        C442   1.380       .  A
C441        C602   1.468       .  S
C442        H444   1.082       .  S
N445        N446   1.318       .  A
N445        C449   1.353       .  A
N445       Cu453   2.082       .  S
N446        C447   1.335       .  A
N446       Cu452   2.041       .  S
C447        C448   1.377       .  A
C447        H450   1.082       .  S
C448        C449   1.390       .  A
C449        H451   1.081       .  S
Cu452       N455   2.041       .  S
Cu453       N463   2.088       .  S
Cu454       N456   2.095       .  S
Cu454       N462   2.099       .  S
N455        N456   1.318       .  A
N455        C459   1.335       .  A
N456        C457   1.356       .  A
C457        C458   1.394       .  A
C457        H460   1.081       .  S
C458        C459   1.377       .  A
C459        H461   1.082       .  S
N462        N463   1.329       .  A
N462        C466   1.345       .  A
N463        C464   1.347       .  A
C464        C465   1.380       .  A
C464        H467   1.082       .  S
C465        C466   1.380       .  A
C465        C650   1.469       .  S
C466        H468   1.082       .  S
N469        N470   1.319       .  A
N469        C473   1.353       .  A
N469       Cu477   2.083       .  S
N470        C471   1.339       .  A
N470       Cu476   2.056       .  S
C471        C472   1.381       .  A
C471        H474   1.082       .  S
C472        C473   1.390       .  A
C473        H475   1.081       .  S
Cu476       N479   2.056       .  S
Cu477       N487   2.087       .  S
Cu478       N480   2.084       .  S
Cu478       N486   2.088       .  S
N479        N480   1.320       .  A
N479        C483   1.336       .  A
N480        C481   1.354       .  A
C481        C482   1.390       .  A
C481        H484   1.081       .  S
C482        C483   1.379       .  A
C483        H485   1.082       .  S
N486        N487   1.328       .  A
N486        C490   1.347       .  A
N487        C488   1.345       .  A
C488        C489   1.378       .  A
C488        H491   1.082       .  S
C489        C490   1.379       .  A
C490        H492   1.082       .  S
N493        N494   1.319       .  A
N493        C497   1.353       .  A
N493       Cu501   2.083       .  S
N494        C495   1.336       .  A
N494       Cu500   2.046       .  S
C495        C496   1.378       .  A
C495        H498   1.082       .  S
C496        C497   1.390       .  A
C497        H499   1.081       .  S
Cu500       N503   2.047       .  S
Cu501       N511   2.088       .  S
Cu502       N504   2.079       .  S
Cu502       N510   2.082       .  S
N503        N504   1.319       .  A
N503        C507   1.336       .  A
N504        C505   1.352       .  A
C505        C506   1.389       .  A
C505        H508   1.081       .  S
C506        C507   1.377       .  A
C507        H509   1.082       .  S
N510        N511   1.328       .  A
N510        C514   1.343       .  A
N511        C512   1.347       .  A
C512        C513   1.381       .  A
C512        H515   1.082       .  S
C513        C514   1.378       .  A
C513        C626   1.466       .  S
C514        H516   1.082       .  S
N517        N518   1.319       .  A
N517        C521   1.352       .  A
N517       Cu525   2.074       .  S
N518        C519   1.337       .  A
N518       Cu524   2.052       .  S
C519        C520   1.378       .  A
C519        H522   1.082       .  S
C520        C521   1.388       .  A
C521        H523   1.081       .  S
Cu524       N527   2.053       .  S
Cu525       N535   2.078       .  S
Cu526       N528   2.081       .  S
Cu526       N534   2.085       .  S
N527        N528   1.319       .  A
N527        C531   1.337       .  A
N528        C529   1.353       .  A
C529        C530   1.390       .  A
C529        H532   1.081       .  S
C530        C531   1.380       .  A
C531        H533   1.082       .  S
N534        N535   1.328       .  A
N534        C538   1.345       .  A
N535        C536   1.344       .  A
C536        C537   1.377       .  A
C536        H539   1.082       .  S
C537        C538   1.378       .  A
C538        H540   1.082       .  S
N541        N542   1.319       .  A
N541        C545   1.353       .  A
N541       Cu549   2.081       .  S
N542        C543   1.335       .  A
N542       Cu548   2.045       .  S
C543        C544   1.378       .  A
C543        H546   1.082       .  S
C544        C545   1.390       .  A
C545        H547   1.081       .  S
Cu548       N551   2.046       .  S
Cu549       N559   2.085       .  S
Cu550       N552   2.086       .  S
Cu550       N558   2.091       .  S
N551        N552   1.319       .  A
N551        C555   1.336       .  A
N552        C553   1.354       .  A
C553        C554   1.391       .  A
C553        H556   1.081       .  S
C554        C555   1.378       .  A
C555        H557   1.082       .  S
N558        N559   1.328       .  A
N558        C562   1.346       .  A
N559        C560   1.346       .  A
C560        C561   1.380       .  A
C560        H563   1.082       .  S
C561        C562   1.380       .  A
C562        H564   1.082       .  S
N565        N566   1.324       .  A
N565        C569   1.351       .  A
N565       Cu573   2.104       .  S
N566        C567   1.345       .  A
N566       Cu572   2.070       .  S
C567        C568   1.379       .  A
C567        H570   1.082       .  S
C568        C569   1.388       .  A
C568        C895   1.475       .  S
C569        H571   1.082       .  S
Cu572       N575   2.070       .  S
Cu573       N583   2.103       .  S
Cu574       N576   2.068       .  S
Cu574       N582   2.068       .  S
N575        N576   1.322       .  A
N575        C579   1.346       .  A
N576        C577   1.343       .  A
C577        C578   1.379       .  A
C577        H580   1.082       .  S
C578        C579   1.381       .  A
C579        H581   1.082       .  S
N582        N583   1.323       .  A
N582        C586   1.346       .  A
N583        C584   1.351       .  A
C584        C585   1.388       .  A
C584        H587   1.082       .  S
C585        C586   1.380       .  A
C585        C771   1.475       .  S
C586        H588   1.082       .  S
N589        N590   1.324       .  A
N589        C593   1.350       .  A
N589       Cu597   2.097       .  S
N590        C591   1.345       .  A
N590       Cu596   2.075       .  S
C591        C592   1.380       .  A
C591        H594   1.082       .  S
C592        C593   1.386       .  A
C592       C1043   1.473       .  S
C593        H595   1.082       .  S
Cu596       N599   2.075       .  S
Cu597       N607   2.097       .  S
Cu598       N600   2.074       .  S
Cu598       N606   2.075       .  S
N599        N600   1.322       .  A
N599        C603   1.346       .  A
N600        C601   1.345       .  A
C601        C602   1.382       .  A
C601        H604   1.082       .  S
C602        C603   1.383       .  A
C603        H605   1.082       .  S
N606        N607   1.323       .  A
N606        C610   1.345       .  A
N607        C608   1.351       .  A
C608        C609   1.388       .  A
C608        H611   1.082       .  S
C609        C610   1.380       .  A
C609        C695   1.475       .  S
C610        H612   1.082       .  S
N613        N614   1.323       .  A
N613        C617   1.356       .  A
N613       Cu621   2.121       .  S
N614        C615   1.342       .  A
N614       Cu620   2.057       .  S
C615        C616   1.377       .  A
C615        H618   1.082       .  S
C616        C617   1.394       .  A
C616        C733   1.478       .  S
C617        H619   1.082       .  S
Cu620       N623   2.056       .  S
Cu621       N631   2.122       .  S
Cu622       N624   2.082       .  S
Cu622       N630   2.084       .  S
N623        N624   1.321       .  A
N623        C627   1.342       .  A
N624        C625   1.349       .  A
C625        C626   1.386       .  A
C625        H628   1.082       .  S
C626        C627   1.378       .  A
C627        H629   1.082       .  S
N630        N631   1.327       .  A
N630        C634   1.345       .  A
N631        C632   1.354       .  A
C632        C633   1.390       .  A
C632        H635   1.082       .  S
C633        C634   1.380       .  A
C633       C1019   1.481       .  S
C634        H636   1.082       .  S
N637        N638   1.325       .  A
N637        C641   1.353       .  A
N637       Cu645   2.110       .  S
N638        C639   1.345       .  A
N638       Cu644   2.078       .  S
C639        C640   1.380       .  A
C639        H642   1.082       .  S
C640        C641   1.389       .  A
C640       C1081   1.478       .  S
C641        H643   1.082       .  S
Cu644       N647   2.078       .  S
Cu645       N655   2.111       .  S
Cu646       N648   2.071       .  S
Cu646       N654   2.071       .  S
N647        N648   1.322       .  A
N647        C651   1.347       .  A
N648        C649   1.344       .  A
C649        C650   1.381       .  A
C649        H652   1.082       .  S
C650        C651   1.384       .  A
C651        H653   1.082       .  S
N654        N655   1.324       .  A
N654        C658   1.345       .  A
N655        C656   1.353       .  A
C656        C657   1.390       .  A
C656        H659   1.082       .  S
C657        C658   1.379       .  A
C657       C1401   1.477       .  S
C658        H660   1.082       .  S
O661       Cu669   2.028   1_554  S
O661        C671   1.279       .  A
O662       Cu669   2.027       .  S
O662        C672   1.279       .  A
O663       Cu669   2.032       .  S
O663        C673   1.280       .  A
O664       Cu669   2.029   1_554  S
O664        C674   1.280       .  A
O665       Cu670   2.011   1_554  S
O665        C674   1.277       .  A
O666       Cu670   2.014       .  S
O666        C673   1.278       .  A
O667       Cu670   2.025       .  S
O667        C672   1.280       .  A
O668       Cu670   2.025   1_554  S
O668        C671   1.280       .  A
Cu669      Cu670   2.372       .  S
C671        C854   1.481       .  S
C672        C688   1.480       .  S
C673        C716   1.480       .  S
C674        C926   1.476       .  S
N675        N676   1.323       .  A
N675        C679   1.350       .  A
N675       Cu683   2.092       .  S
N676        C677   1.346       .  A
N676       Cu682   2.080       .  S
C677        C678   1.383       .  A
C677        H680   1.082       .  S
C678        C679   1.387       .  A
C678        C711   1.476       .  S
C679        H681   1.082       .  S
Cu682       N685   2.081       .  S
Cu683       N693   2.092       .  S
Cu684       N686   2.096       .  S
Cu684       N692   2.096       .  S
N685        N686   1.322       .  A
N685        C689   1.347       .  A
N686        C687   1.350       .  A
C687        C688   1.389       .  A
C687        H690   1.081       .  S
C688        C689   1.384       .  A
C689        H691   1.082       .  S
N692        N693   1.325       .  A
N692        C696   1.349       .  A
N693        C694   1.348       .  A
C694        C695   1.384       .  A
C694        H697   1.082       .  S
C695        C696   1.384       .  A
C696        H698   1.082       .  S
O699       Cu707   2.022   1_545  S
O699        C709   1.279       .  A
O700       Cu707   2.027       .  S
O700        C710   1.280       .  A
O701       Cu707   2.024       .  S
O701        C711   1.279       .  A
O702       Cu707   2.023   1_545  S
O702        C712   1.279       .  A
O703       Cu708   2.014   1_545  S
O703        C712   1.278       .  A
O704       Cu708   2.015       .  S
O704        C711   1.278       .  A
O705       Cu708   2.020       .  S
O705        C710   1.279       .  A
O706       Cu708   2.016   1_545  S
O706        C709   1.278       .  A
Cu707      Cu708   2.373       .  S
C709        C978   1.475       .  S
C710        C764   1.480       .  S
C712       C1064   1.475       .  S
N713        N714   1.323       .  A
N713        C717   1.349       .  A
N713       Cu721   2.092       .  S
N714        C715   1.348       .  A
N714       Cu720   2.090       .  S
C715        C716   1.386       .  A
C715        H718   1.082       .  S
C716        C717   1.386       .  A
C717        H719   1.081       .  S
Cu720       N723   2.090       .  S
Cu721       N731   2.093       .  S
Cu722       N724   2.096       .  S
Cu722       N730   2.096       .  S
N723        N724   1.324       .  A
N723        C727   1.348       .  A
N724        C725   1.350       .  A
C725        C726   1.387       .  A
C725        H728   1.081       .  S
C726        C727   1.386       .  A
C726        C747   1.480       .  S
C727        H729   1.082       .  S
N730        N731   1.323       .  A
N730        C734   1.351       .  A
N731        C732   1.347       .  A
C732        C733   1.386       .  A
C732        H735   1.082       .  S
C733        C734   1.387       .  A
C734        H736   1.082       .  S
O737       Cu745   2.033   1_655  S
O737        C747   1.280       .  A
O738       Cu745   2.036       .  S
O738        C748   1.281       .  A
O739       Cu745   2.030       .  S
O739        C749   1.280       .  A
O740       Cu745   2.032   1_655  S
O740        C750   1.280       .  A
O741       Cu746   2.023   1_655  S
O741        C750   1.279       .  A
O742       Cu746   2.019       .  S
O742        C749   1.279       .  A
O743       Cu746   2.018       .  S
O743        C748   1.278       .  A
O744       Cu746   2.017   1_655  S
O744        C747   1.278       .  A
Cu745      Cu746   2.371       .  S
C748       C1136   1.481       .  S
C749        C802   1.479       .  S
C750        C754   1.482       .  S
N751        N752   1.323       .  A
N751        C755   1.350       .  A
N751       Cu759   2.092       .  S
N752        C753   1.349       .  A
N752       Cu758   2.093       .  S
C753        C754   1.387       .  A
C753        H756   1.082       .  S
C754        C755   1.387       .  A
C755        H757   1.081       .  S
Cu758       N761   2.093       .  S
Cu759       N769   2.092       .  S
Cu760       N762   2.095       .  S
Cu760       N768   2.095       .  S
N761        N762   1.324       .  A
N761        C765   1.348       .  A
N762        C763   1.350       .  A
C763        C764   1.387       .  A
C763        H766   1.082       .  S
C764        C765   1.385       .  A
C765        H767   1.082       .  S
N768        N769   1.325       .  A
N768        C772   1.350       .  A
N769        C770   1.348       .  A
C770        C771   1.383       .  A
C770        H773   1.082       .  S
C771        C772   1.385       .  A
C772        H774   1.082       .  S
O775       Cu783   2.026       .  S
O775        C785   1.279       .  A
O776       Cu783   2.024   1_556  S
O776        C786   1.279       .  A
O777       Cu783   2.021   1_556  S
O777        C787   1.279       .  A
O778       Cu783   2.025       .  S
O778        C788   1.279       .  A
O779       Cu784   2.013       .  S
O779        C788   1.278       .  A
O780       Cu784   2.011   1_556  S
O780        C787   1.277       .  A
O781       Cu784   2.021   1_556  S
O781        C786   1.279       .  A
O782       Cu784   2.026       .  S
O782        C785   1.280       .  A
Cu783      Cu784   2.373       .  S
C785       C1150   1.481       .  S
C786        C792   1.477       .  S
C787       C1026   1.474       .  S
C788        C816   1.476       .  S
N789        N790   1.323       .  A
N789        C793   1.349       .  A
N789       Cu797   2.090       .  S
N790        C791   1.346       .  A
N790       Cu796   2.083       .  S
C791        C792   1.383       .  A
C791        H794   1.082       .  S
C792        C793   1.387       .  A
C793        H795   1.082       .  S
Cu796       N799   2.083       .  S
Cu797       N807   2.089       .  S
Cu798       N800   2.091       .  S
Cu798       N806   2.091       .  S
N799        N800   1.322       .  A
N799        C803   1.347       .  A
N800        C801   1.350       .  A
C801        C802   1.388       .  A
C801        H804   1.081       .  S
C802        C803   1.385       .  A
C803        H805   1.082       .  S
N806        N807   1.324       .  A
N806        C810   1.346       .  A
N807        C808   1.350       .  A
C808        C809   1.384       .  A
C808        H811   1.082       .  S
C809        C810   1.383       .  A
C810        H812   1.082       .  S
N813        N814   1.322       .  A
N813        C817   1.348       .  A
N813       Cu821   2.083       .  S
N814        C815   1.346       .  A
N814       Cu820   2.080       .  S
C815        C816   1.385       .  A
C815        H818   1.082       .  S
C816        C817   1.386       .  A
C817        H819   1.082       .  S
Cu820       N823   2.080       .  S
Cu821       N831   2.084       .  S
Cu822       N824   2.090       .  S
Cu822       N830   2.090       .  S
N823        N824   1.324       .  A
N823        C827   1.345       .  A
N824        C825   1.349       .  A
C825        C826   1.386       .  A
C825        H828   1.081       .  S
C826        C827   1.383       .  A
C826        C849   1.475       .  S
C827        H829   1.082       .  S
N830        N831   1.324       .  A
N830        C834   1.351       .  A
N831        C832   1.345       .  A
C832        C833   1.382       .  A
C832        H835   1.082       .  S
C833        C834   1.386       .  A
C834        H836   1.082       .  S
O837       Cu845   2.026       .  S
O837        C847   1.280       .  A
O838       Cu845   2.026   1_455  S
O838        C848   1.279       .  A
O839       Cu845   2.010   1_455  S
O839        C849   1.277       .  A
O840       Cu845   2.012       .  S
O840        C850   1.278       .  A
O841       Cu846   2.029       .  S
O841        C850   1.280       .  A
O842       Cu846   2.027   1_455  S
O842        C849   1.279       .  A
O843       Cu846   2.024   1_455  S
O843        C848   1.279       .  A
O844       Cu846   2.025       .  S
O844        C847   1.279       .  A
Cu845      Cu846   2.372       .  S
C847        C864   1.480       .  S
C848       C1198   1.480       .  S
C850        C888   1.477       .  S
N851        N852   1.324       .  A
N851        C855   1.352       .  A
N851       Cu859   2.107       .  S
N852        C853   1.347       .  A
N852       Cu858   2.084       .  S
C853        C854   1.383       .  A
C853        H856   1.082       .  S
C854        C855   1.390       .  A
C855        H857   1.081       .  S
Cu858       N861   2.084       .  S
Cu859       N869   2.107       .  S
Cu860       N862   2.090       .  S
Cu860       N868   2.090       .  S
N861        N862   1.322       .  A
N861        C865   1.348       .  A
N862        C863   1.349       .  A
C863        C864   1.388       .  A
C863        H866   1.082       .  S
C864        C865   1.386       .  A
C865        H867   1.082       .  S
N868        N869   1.325       .  A
N868        C872   1.346       .  A
N869        C870   1.353       .  A
C870        C871   1.388       .  A
C870        H873   1.082       .  S
C871        C872   1.383       .  A
C872        H874   1.082       .  S
N875        N876   1.323       .  A
N875        C879   1.349       .  A
N875       Cu883   2.090       .  S
N876        C877   1.346       .  A
N876       Cu882   2.082       .  S
C877        C878   1.384       .  A
C877        H880   1.082       .  S
C878        C879   1.387       .  A
C878        C909   1.477       .  S
C879        H881   1.081       .  S
Cu882       N885   2.083       .  S
Cu883       N893   2.090       .  S
Cu884       N886   2.089       .  S
Cu884       N892   2.089       .  S
N885        N886   1.323       .  A
N885        C889   1.346       .  A
N886        C887   1.350       .  A
C887        C888   1.387       .  A
C887        H890   1.082       .  S
C888        C889   1.384       .  A
C889        H891   1.082       .  S
N892        N893   1.324       .  A
N892        C896   1.349       .  A
N893        C894   1.347       .  A
C894        C895   1.384       .  A
C894        H897   1.082       .  S
C895        C896   1.384       .  A
C896        H898   1.082       .  S
O899       Cu907   2.016       .  S
O899        C909   1.278       .  A
O900       Cu907   2.017   1_545  S
O900        C910   1.279       .  A
O901       Cu907   2.018   1_545  S
O901        C911   1.279       .  A
O902       Cu907   2.021       .  S
O902        C912   1.278       .  A
O903       Cu908   2.028       .  S
O903        C912   1.280       .  A
O904       Cu908   2.030   1_545  S
O904        C911   1.279       .  A
O905       Cu908   2.024   1_545  S
O905        C910   1.279       .  A
O906       Cu908   2.024       .  S
O906        C909   1.279       .  A
Cu907      Cu908   2.372       .  S
C910        C950   1.477       .  S
C911       C1384   1.479       .  S
C912        C916   1.479       .  S
N913        N914   1.323       .  A
N913        C917   1.348       .  A
N913       Cu921   2.085       .  S
N914        C915   1.349       .  A
N914       Cu920   2.092       .  S
C915        C916   1.387       .  A
C915        H918   1.082       .  S
C916        C917   1.386       .  A
C917        H919   1.082       .  S
Cu920       N923   2.092       .  S
Cu921       N931   2.085       .  S
Cu922       N924   2.080       .  S
Cu922       N930   2.080       .  S
N923        N924   1.323       .  A
N923        C927   1.347       .  A
N924        C925   1.348       .  A
C925        C926   1.384       .  A
C925        H928   1.082       .  S
C926        C927   1.386       .  A
C927        H929   1.082       .  S
N930        N931   1.324       .  A
N930        C934   1.346       .  A
N931        C932   1.347       .  A
C932        C933   1.382       .  A
C932        H935   1.082       .  S
C933        C934   1.382       .  A
C934        H936   1.082       .  S
N937        N938   1.322       .  A
N937        C941   1.350       .  A
N937       Cu945   2.093       .  S
N938        C939   1.347       .  A
N938       Cu944   2.082       .  S
C939        C940   1.385       .  A
C939        H942   1.082       .  S
C940        C941   1.387       .  A
C940        C972   1.479       .  S
C941        H943   1.081       .  S
Cu944       N947   2.082       .  S
Cu945       N955   2.093       .  S
Cu946       N948   2.092       .  S
Cu946       N954   2.091       .  S
N947        N948   1.323       .  A
N947        C951   1.346       .  A
N948        C949   1.349       .  A
C949        C950   1.387       .  A
C949        H952   1.082       .  S
C950        C951   1.383       .  A
C951        H953   1.082       .  S
N954        N955   1.324       .  A
N954        C958   1.349       .  A
N955        C956   1.348       .  A
C956        C957   1.384       .  A
C956        H959   1.082       .  S
C957        C958   1.384       .  A
C958        H960   1.082       .  S
O961       Cu969   2.029       .  S
O961        C971   1.280       .  A
O962       Cu969   2.029   1_554  S
O962        C972   1.280       .  A
O963       Cu969   2.026   1_554  S
O963        C973   1.279       .  A
O964       Cu969   2.030       .  S
O964        C974   1.279       .  A
O965       Cu970   2.011       .  S
O965        C974   1.278       .  A
O966       Cu970   2.009   1_554  S
O966        C973   1.277       .  A
O967       Cu970   2.019   1_554  S
O967        C972   1.279       .  A
O968       Cu970   2.021       .  S
O968        C971   1.279       .  A
Cu969      Cu970   2.372       .  S
C971       C1012   1.481       .  S
C973       C1346   1.474       .  S
C974        C988   1.476       .  S
N975        N976   1.322       .  A
N975        C979   1.348       .  A
N975       Cu983   2.083       .  S
N976        C977   1.346       .  A
N976       Cu982   2.079       .  S
C977        C978   1.384       .  A
C977        H980   1.082       .  S
C978        C979   1.386       .  A
C979        H981   1.082       .  S
Cu982       N985   2.078       .  S
Cu983       N993   2.083       .  S
Cu984       N986   2.089       .  S
Cu984       N992   2.089       .  S
N985        N986   1.322       .  A
N985        C989   1.345       .  A
N986        C987   1.350       .  A
C987        C988   1.388       .  A
C987        H990   1.082       .  S
C988        C989   1.383       .  A
C989        H991   1.082       .  S
N992        N993   1.324       .  A
N992        C996   1.347       .  A
N993        C994   1.347       .  A
C994        C995   1.382       .  A
C994        H997   1.082       .  S
C995        C996   1.383       .  A
C996        H998   1.082       .  S
N999       N1000   1.324       .  A
N999       C1003   1.351       .  A
N999      Cu1007   2.100       .  S
N1000      C1001   1.349       .  A
N1000     Cu1006   2.096       .  S
C1001      C1002   1.386       .  A
C1001      H1004   1.082       .  S
C1002      C1003   1.388       .  A
C1002      C1060   1.484       .  S
C1003      H1005   1.081       .  S
Cu1006     N1009   2.095       .  S
Cu1007     N1017   2.100       .  S
Cu1008     N1010   2.089       .  S
Cu1008     N1016   2.089       .  S
N1009      N1010   1.323       .  A
N1009      C1013   1.349       .  A
N1010      C1011   1.349       .  A
C1011      C1012   1.386       .  A
C1011      H1014   1.082       .  S
C1012      C1013   1.387       .  A
C1013      H1015   1.082       .  S
N1016      N1017   1.324       .  A
N1016      C1020   1.347       .  A
N1017      C1018   1.352       .  A
C1018      C1019   1.388       .  A
C1018      H1021   1.082       .  S
C1019      C1020   1.384       .  A
C1020      H1022   1.082       .  S
N1023      N1024   1.323       .  A
N1023      C1027   1.347       .  A
N1023     Cu1031   2.077       .  S
N1024      C1025   1.347       .  A
N1024     Cu1030   2.086       .  S
C1025      C1026   1.385       .  A
C1025      H1028   1.082       .  S
C1026      C1027   1.384       .  A
C1027      H1029   1.082       .  S
Cu1030     N1033   2.087       .  S
Cu1031     N1041   2.078       .  S
Cu1032     N1034   2.096       .  S
Cu1032     N1040   2.095       .  S
N1033      N1034   1.324       .  A
N1033      C1037   1.348       .  A
N1034      C1035   1.350       .  A
C1035      C1036   1.387       .  A
C1035      H1038   1.081       .  S
C1036      C1037   1.385       .  A
C1036      C1121   1.480       .  S
C1037      H1039   1.082       .  S
N1040      N1041   1.324       .  A
N1040      C1044   1.350       .  A
N1041      C1042   1.346       .  A
C1042      C1043   1.381       .  A
C1042      H1045   1.082       .  S
C1043      C1044   1.386       .  A
C1044      H1046   1.082       .  S
O1047     Cu1055   2.024   1_655  S
O1047      C1057   1.279       .  A
O1048     Cu1055   2.028       .  S
O1048      C1058   1.280       .  A
O1049     Cu1055   2.032       .  S
O1049      C1059   1.279       .  A
O1050     Cu1055   2.034   1_655  S
O1050      C1060   1.280       .  A
O1051     Cu1056   2.025   1_655  S
O1051      C1060   1.279       .  A
O1052     Cu1056   2.023       .  S
O1052      C1059   1.279       .  A
O1053     Cu1056   2.009       .  S
O1053      C1058   1.277       .  A
O1054     Cu1056   2.008   1_655  S
O1054      C1057   1.277       .  A
Cu1055    Cu1056   2.372       .  S
C1057      C1074   1.474       .  S
C1058      C1274   1.476       .  S
C1059      C1098   1.481       .  S
N1061      N1062   1.324       .  A
N1061      C1065   1.348       .  A
N1061     Cu1069   2.093       .  S
N1062      C1063   1.346       .  A
N1062     Cu1068   2.080       .  S
C1063      C1064   1.383       .  A
C1063      H1066   1.082       .  S
C1064      C1065   1.385       .  A
C1065      H1067   1.081       .  S
Cu1068     N1071   2.080       .  S
Cu1069     N1079   2.092       .  S
Cu1070     N1072   2.084       .  S
Cu1070     N1078   2.086       .  S
N1071      N1072   1.322       .  A
N1071      C1075   1.346       .  A
N1072      C1073   1.348       .  A
C1073      C1074   1.384       .  A
C1073      H1076   1.081       .  S
C1074      C1075   1.385       .  A
C1075      H1077   1.082       .  S
N1078      N1079   1.323       .  A
N1078      C1082   1.347       .  A
N1079      C1080   1.351       .  A
C1080      C1081   1.387       .  A
C1080      H1083   1.082       .  S
C1081      C1082   1.384       .  A
C1082      H1084   1.082       .  S
N1085      N1086   1.323       .  A
N1085      C1089   1.351       .  A
N1085     Cu1093   2.101       .  S
N1086      C1087   1.347       .  A
N1086     Cu1092   2.081       .  S
C1087      C1088   1.384       .  A
C1087      H1090   1.082       .  S
C1088      C1089   1.390       .  A
C1088      C1122   1.482       .  S
C1089      H1091   1.081       .  S
Cu1092     N1095   2.081       .  S
Cu1093     N1103   2.101       .  S
Cu1094     N1096   2.101       .  S
Cu1094     N1102   2.101       .  S
N1095      N1096   1.323       .  A
N1095      C1099   1.346       .  A
N1096      C1097   1.352       .  A
C1097      C1098   1.390       .  A
C1097      H1100   1.082       .  S
C1098      C1099   1.384       .  A
C1099      H1101   1.082       .  S
N1102      N1103   1.326       .  A
N1102      C1106   1.351       .  A
N1103      C1104   1.349       .  A
C1104      C1105   1.385       .  A
C1104      H1107   1.082       .  S
C1105      C1106   1.386       .  A
C1106      H1108   1.082       .  S
O1109     Cu1117   2.016       .  S
O1109      C1119   1.278       .  A
O1110     Cu1117   2.016   1_565  S
O1110      C1120   1.278       .  A
O1111     Cu1117   2.020   1_565  S
O1111      C1121   1.279       .  A
O1112     Cu1117   2.025       .  S
O1112      C1122   1.280       .  A
O1113     Cu1118   2.029       .  S
O1113      C1122   1.279       .  A
O1114     Cu1118   2.028   1_565  S
O1114      C1121   1.280       .  A
O1115     Cu1118   2.026   1_565  S
O1115      C1120   1.279       .  A
O1116     Cu1118   2.024       .  S
O1116      C1119   1.279       .  A
Cu1117    Cu1118   2.372       .  S
C1119      C1246   1.476       .  S
C1120      C1126   1.477       .  S
N1123      N1124   1.324       .  A
N1123      C1127   1.349       .  A
N1123     Cu1131   2.089       .  S
N1124      C1125   1.347       .  A
N1124     Cu1130   2.090       .  S
C1125      C1126   1.384       .  A
C1125      H1128   1.082       .  S
C1126      C1127   1.386       .  A
C1127      H1129   1.082       .  S
Cu1130     N1133   2.090       .  S
Cu1131     N1141   2.090       .  S
Cu1132     N1134   2.088       .  S
Cu1132     N1140   2.088       .  S
N1133      N1134   1.322       .  A
N1133      C1137   1.348       .  A
N1134      C1135   1.350       .  A
C1135      C1136   1.387       .  A
C1135      H1138   1.081       .  S
C1136      C1137   1.387       .  A
C1137      H1139   1.082       .  S
N1140      N1141   1.324       .  A
N1140      C1144   1.348       .  A
N1141      C1142   1.348       .  A
C1142      C1143   1.384       .  A
C1142      H1145   1.082       .  S
C1143      C1144   1.383       .  A
C1144      H1146   1.082       .  S
N1147      N1148   1.323       .  A
N1147      C1151   1.351       .  A
N1147     Cu1155   2.102       .  S
N1148      C1149   1.348       .  A
N1148     Cu1154   2.085       .  S
C1149      C1150   1.384       .  A
C1149      H1152   1.082       .  S
C1150      C1151   1.389       .  A
C1151      H1153   1.082       .  S
Cu1154     N1157   2.085       .  S
Cu1155     N1165   2.102       .  S
Cu1156     N1158   2.092       .  S
Cu1156     N1164   2.092       .  S
N1157      N1158   1.322       .  A
N1157      C1161   1.346       .  A
N1158      C1159   1.352       .  A
C1159      C1160   1.389       .  A
C1159      H1162   1.082       .  S
C1160      C1161   1.385       .  A
C1160      C1182   1.481       .  S
C1161      H1163   1.082       .  S
N1164      N1165   1.325       .  A
N1164      C1168   1.347       .  A
N1165      C1166   1.351       .  A
C1166      C1167   1.386       .  A
C1166      H1169   1.082       .  S
C1167      C1168   1.383       .  A
C1168      H1170   1.082       .  S
O1171     Cu1179   2.013       .  S
O1171      C1181   1.278       .  A
O1172     Cu1179   2.015   1_565  S
O1172      C1182   1.278       .  A
O1173     Cu1179   2.009   1_565  S
O1173      C1183   1.277       .  A
O1174     Cu1179   2.013       .  S
O1174      C1184   1.278       .  A
O1175     Cu1180   2.033       .  S
O1175      C1184   1.280       .  A
O1176     Cu1180   2.029   1_565  S
O1176      C1183   1.280       .  A
O1177     Cu1180   2.036   1_565  S
O1177      C1182   1.280       .  A
O1178     Cu1180   2.031       .  S
O1178      C1181   1.280       .  A
Cu1179    Cu1180   2.372       .  S
C1181      C1332   1.478       .  S
C1183      C1188   1.476       .  S
C1184      C1222   1.479       .  S
N1185      N1186   1.323       .  A
N1185      C1189   1.349       .  A
N1185     Cu1193   2.081       .  S
N1186      C1187   1.346       .  A
N1186     Cu1192   2.090       .  S
C1187      C1188   1.385       .  A
C1187      H1190   1.082       .  S
C1188      C1189   1.385       .  A
C1189      H1191   1.082       .  S
Cu1192     N1195   2.090       .  S
Cu1193     N1203   2.081       .  S
Cu1194     N1196   2.088       .  S
Cu1194     N1202   2.088       .  S
N1195      N1196   1.323       .  A
N1195      C1199   1.349       .  A
N1196      C1197   1.348       .  A
C1197      C1198   1.386       .  A
C1197      H1200   1.082       .  S
C1198      C1199   1.387       .  A
C1199      H1201   1.082       .  S
N1202      N1203   1.324       .  A
N1202      C1206   1.347       .  A
N1203      C1204   1.347       .  A
C1204      C1205   1.383       .  A
C1204      H1207   1.082       .  S
C1205      C1206   1.383       .  A
C1206      H1208   1.082       .  S
N1209      N1210   1.323       .  A
N1209      C1213   1.350       .  A
N1209     Cu1217   2.092       .  S
N1210      C1211   1.349       .  A
N1210     Cu1216   2.095       .  S
C1211      C1212   1.387       .  A
C1211      H1214   1.082       .  S
C1212      C1213   1.387       .  A
C1212      C1267   1.482       .  S
C1213      H1215   1.081       .  S
Cu1216     N1219   2.095       .  S
Cu1217     N1227   2.092       .  S
Cu1218     N1220   2.086       .  S
Cu1218     N1226   2.086       .  S
N1219      N1220   1.323       .  A
N1219      C1223   1.347       .  A
N1220      C1221   1.350       .  A
C1221      C1222   1.386       .  A
C1221      H1224   1.082       .  S
C1222      C1223   1.386       .  A
C1223      H1225   1.082       .  S
N1226      N1227   1.324       .  A
N1226      C1230   1.347       .  A
N1227      C1228   1.349       .  A
C1228      C1229   1.385       .  A
C1228      H1231   1.082       .  S
C1229      C1230   1.383       .  A
C1230      H1232   1.082       .  S
N1233      N1234   1.323       .  A
N1233      C1237   1.349       .  A
N1233     Cu1241   2.091       .  S
N1234      C1235   1.346       .  A
N1234     Cu1240   2.081       .  S
C1235      C1236   1.384       .  A
C1235      H1238   1.082       .  S
C1236      C1237   1.386       .  A
C1236      C1269   1.476       .  S
C1237      H1239   1.081       .  S
Cu1240     N1243   2.081       .  S
Cu1241     N1251   2.091       .  S
Cu1242     N1244   2.088       .  S
Cu1242     N1250   2.087       .  S
N1243      N1244   1.323       .  A
N1243      C1247   1.346       .  A
N1244      C1245   1.349       .  A
C1245      C1246   1.386       .  A
C1245      H1248   1.081       .  S
C1246      C1247   1.384       .  A
C1247      H1249   1.082       .  S
N1250      N1251   1.324       .  A
N1250      C1254   1.348       .  A
N1251      C1252   1.349       .  A
C1252      C1253   1.385       .  A
C1252      H1255   1.082       .  S
C1253      C1254   1.383       .  A
C1254      H1256   1.082       .  S
O1257     Cu1265   2.022       .  S
O1257      C1267   1.279       .  A
O1258     Cu1265   2.020   1_556  S
O1258      C1268   1.279       .  A
O1259     Cu1265   2.012   1_556  S
O1259      C1269   1.278       .  A
O1260     Cu1265   2.011       .  S
O1260      C1270   1.277       .  A
O1261     Cu1266   2.031       .  S
O1261      C1270   1.280       .  A
O1262     Cu1266   2.026   1_556  S
O1262      C1269   1.279       .  A
O1263     Cu1266   2.028   1_556  S
O1263      C1268   1.279       .  A
O1264     Cu1266   2.032       .  S
O1264      C1267   1.280       .  A
Cu1265    Cu1266   2.372       .  S
C1268      C1284   1.479       .  S
C1270      C1308   1.477       .  S
N1271      N1272   1.322       .  A
N1271      C1275   1.348       .  A
N1271     Cu1279   2.077       .  S
N1272      C1273   1.347       .  A
N1272     Cu1278   2.084       .  S
C1273      C1274   1.386       .  A
C1273      H1276   1.082       .  S
C1274      C1275   1.384       .  A
C1275      H1277   1.082       .  S
Cu1278     N1281   2.085       .  S
Cu1279     N1289   2.078       .  S
Cu1280     N1282   2.100       .  S
Cu1280     N1288   2.099       .  S
N1281      N1282   1.324       .  A
N1281      C1285   1.346       .  A
N1282      C1283   1.351       .  A
C1283      C1284   1.388       .  A
C1283      H1286   1.081       .  S
C1284      C1285   1.383       .  A
C1285      H1287   1.082       .  S
N1288      N1289   1.324       .  A
N1288      C1292   1.352       .  A
N1289      C1290   1.344       .  A
C1290      C1291   1.382       .  A
C1290      H1293   1.082       .  S
C1291      C1292   1.387       .  A
C1292      H1294   1.082       .  S
N1295      N1296   1.322       .  A
N1295      C1299   1.348       .  A
N1295     Cu1303   2.083       .  S
N1296      C1297   1.348       .  A
N1296     Cu1302   2.086       .  S
C1297      C1298   1.386       .  A
C1297      H1300   1.082       .  S
C1298      C1299   1.385       .  A
C1298      C1378   1.477       .  S
C1299      H1301   1.082       .  S
Cu1302     N1305   2.086       .  S
Cu1303     N1313   2.083       .  S
Cu1304     N1306   2.085       .  S
Cu1304     N1312   2.085       .  S
N1305      N1306   1.323       .  A
N1305      C1309   1.346       .  A
N1306      C1307   1.350       .  A
C1307      C1308   1.386       .  A
C1307      H1310   1.082       .  S
C1308      C1309   1.384       .  A
C1309      H1311   1.082       .  S
N1312      N1313   1.323       .  A
N1312      C1316   1.346       .  A
N1313      C1314   1.348       .  A
C1314      C1315   1.383       .  A
C1314      H1317   1.082       .  S
C1315      C1316   1.383       .  A
C1316      H1318   1.082       .  S
N1319      N1320   1.323       .  A
N1319      C1323   1.348       .  A
N1319     Cu1327   2.091       .  S
N1320      C1321   1.347       .  A
N1320     Cu1326   2.081       .  S
C1321      C1322   1.384       .  A
C1321      H1324   1.082       .  S
C1322      C1323   1.386       .  A
C1322      C1379   1.475       .  S
C1323      H1325   1.081       .  S
Cu1326     N1329   2.081       .  S
Cu1327     N1337   2.092       .  S
Cu1328     N1330   2.092       .  S
Cu1328     N1336   2.092       .  S
N1329      N1330   1.323       .  A
N1329      C1333   1.346       .  A
N1330      C1331   1.350       .  A
C1331      C1332   1.387       .  A
C1331      H1334   1.081       .  S
C1332      C1333   1.384       .  A
C1333      H1335   1.082       .  S
N1336      N1337   1.324       .  A
N1336      C1340   1.349       .  A
N1337      C1338   1.349       .  A
C1338      C1339   1.386       .  A
C1338      H1341   1.082       .  S
C1339      C1340   1.384       .  A
C1340      H1342   1.082       .  S
N1343      N1344   1.323       .  A
N1343      C1347   1.349       .  A
N1343     Cu1351   2.092       .  S
N1344      C1345   1.345       .  A
N1344     Cu1350   2.075       .  S
C1345      C1346   1.382       .  A
C1345      H1348   1.082       .  S
C1346      C1347   1.387       .  A
C1347      H1349   1.081       .  S
Cu1350     N1353   2.074       .  S
Cu1351     N1361   2.092       .  S
Cu1352     N1354   2.079       .  S
Cu1352     N1360   2.080       .  S
N1353      N1354   1.322       .  A
N1353      C1357   1.345       .  A
N1354      C1355   1.347       .  A
C1355      C1356   1.385       .  A
C1355      H1358   1.082       .  S
C1356      C1357   1.383       .  A
C1356      C1380   1.471       .  S
C1357      H1359   1.082       .  S
N1360      N1361   1.324       .  A
N1360      C1364   1.344       .  A
N1361      C1362   1.350       .  A
C1362      C1363   1.385       .  A
C1362      H1365   1.082       .  S
C1363      C1364   1.382       .  A
C1364      H1366   1.082       .  S
O1367     Cu1375   2.015       .  S
O1367      C1377   1.278       .  A
O1368     Cu1375   2.018   1_455  S
O1368      C1378   1.278       .  A
O1369     Cu1375   2.018   1_455  S
O1369      C1379   1.279       .  A
O1370     Cu1375   2.012       .  S
O1370      C1380   1.278       .  A
O1371     Cu1376   2.016       .  S
O1371      C1380   1.278       .  A
O1372     Cu1376   2.017   1_455  S
O1372      C1379   1.278       .  A
O1373     Cu1376   2.024   1_455  S
O1373      C1378   1.279       .  A
O1374     Cu1376   2.024       .  S
O1374      C1377   1.279       .  A
Cu1375    Cu1376   2.374       .  S
C1377      C1394   1.475       .  S
N1381      N1382   1.323       .  A
N1381      C1385   1.352       .  A
N1381     Cu1389   2.102       .  S
N1382      C1383   1.345       .  A
N1382     Cu1388   2.078       .  S
C1383      C1384   1.383       .  A
C1383      H1386   1.082       .  S
C1384      C1385   1.389       .  A
C1385      H1387   1.081       .  S
Cu1388     N1391   2.078       .  S
Cu1389     N1399   2.102       .  S
Cu1390     N1392   2.088       .  S
Cu1390     N1398   2.089       .  S
N1391      N1392   1.322       .  A
N1391      C1395   1.346       .  A
N1392      C1393   1.348       .  A
C1393      C1394   1.386       .  A
C1393      H1396   1.081       .  S
C1394      C1395   1.384       .  A
C1395      H1397   1.082       .  S
N1398      N1399   1.325       .  A
N1398      C1402   1.349       .  A
N1399      C1400   1.349       .  A
C1400      C1401   1.386       .  A
C1400      H1403   1.082       .  S
C1401      C1402   1.384       .  A
C1402      H1404   1.082       .  S
