geometry optimzed in LAMMPS
_audit_creation_date              2020-12-01 
_audit_creation_method            'lammps2cif' 
_symmetry_space_group_name_H-M    'P1' 
_symmetry_Int_Tables_number       1 
_symmetry_cell_setting            triclinic 
loop_ 
_symmetry_equiv_pos_as_xyz 
  x,y,z 
_cell_length_a                    44.56658732 
_cell_length_b                    44.97095766222284 
_cell_length_c                    32.05071260776165 
_cell_angle_alpha                 90.51854027903383 
_cell_angle_beta                  89.57441721833024 
_cell_angle_gamma                 120.39179864503285 
loop_ 
_atom_site_label 
_atom_site_type_symbol 
_atom_site_fract_x 
_atom_site_fract_y 
_atom_site_fract_z 
_atom_site_charge 
Fe1        Fe  0.36969072  0.19631708  0.00638577     1.65800
Fe2        Fe  0.44439841  0.25864912  0.04688077     1.73200
Fe3        Fe  0.44553746  0.21239686  0.96630681     1.54400
O4          O  0.40867540  0.15907461  0.96290441    -0.81300
O5          O  0.46513629  0.29213126  0.99859841    -0.79600
O6          O  0.36951799  0.15106910  0.01120760    -0.83800
O7          O  0.36766330  0.19308410  0.94016846    -0.78600
O8          O  0.46616003  0.20150318  0.01592971    -0.80400
O9          O  0.40527309  0.27209132  0.05105562    -0.83100
C10         C  0.39024809  0.20658644  0.91071293     0.97600
C11         C  0.38322761  0.13925378  0.98652944     1.05100
O12         O  0.41940789  0.22256504  0.00612214    -1.12100
O13         O  0.42244278  0.22455822  0.09470888    -0.74600
O14         O  0.36733945  0.19642602  0.07236175    -0.78000
O15         O  0.42278245  0.22176958  0.91734214    -0.78700
C16         C  0.39010589  0.20455992  0.10113974     0.96500
O17         O  0.36704575  0.24021116  0.00223501    -0.76700
O18         O  0.48894993  0.25175577  0.04649532    -0.81900
C19         C  0.49099522  0.29284241  0.98146635     0.99100
C20         C  0.49246062  0.22753620  0.03040755     1.05100
O21         O  0.48796590  0.26513757  0.96560723    -0.77500
C22         C  0.37962022  0.26549980  0.02739705     1.03400
Fe23       Fe  0.37354534  0.18217238  0.50549102     1.65800
Fe24       Fe  0.44832859  0.20040332  0.45962485     1.73200
Fe25       Fe  0.44926412  0.24432826  0.54492352     1.54400
O26         O  0.41113836  0.25891719  0.54891664    -0.81300
O27         O  0.47470077  0.18998486  0.50231600    -0.79600
O28         O  0.37102888  0.22617236  0.50220343    -0.83800
O29         O  0.37181037  0.18314827  0.57140087    -0.78600
O30         O  0.47301306  0.28060542  0.49983024    -0.80400
O31         O  0.41253977  0.14702933  0.45748038    -0.83100
C32         C  0.39454930  0.19266751  0.60032335     0.97600
C33         C  0.38486473  0.25217894  0.52634887     1.05100
O34         O  0.42367143  0.20893800  0.50350870    -1.12100
O35         O  0.42226755  0.21027441  0.41513121    -0.74600
O36         O  0.36845898  0.17809354  0.43981149    -0.78000
O37         O  0.42680759  0.21028732  0.59263005    -0.78700
C38         C  0.38962706  0.19390023  0.40988478     0.96500
O39         O  0.37481587  0.13731687  0.50877889    -0.76700
O40         O  0.48924385  0.25221247  0.45749891    -0.81900
C41         C  0.49604763  0.21143473  0.52820110     0.99100
C42         C  0.49461325  0.28032951  0.47433200     1.05100
O43         O  0.49110866  0.23459648  0.54488430    -0.77500
C44         C  0.38976857  0.12686441  0.48374751     1.03400
Fe45       Fe  0.18839328  0.81867293  0.98751032     1.65800
Fe46       Fe  0.25241885  0.80945487  0.02709499     1.73200
Fe47       Fe  0.20600668  0.75994397  0.94852919     1.54400
O48         O  0.15213336  0.74154038  0.94654268    -0.81300
O49         O  0.28491926  0.82203679  0.97732809    -0.79600
O50         O  0.14322781  0.77263902  0.99422875    -0.83800
O51         O  0.18354113  0.81524891  0.92133175    -0.78600
O52         O  0.19500989  0.72878711  0.99812030    -0.80400
O53         O  0.26538229  0.86146664  0.02908551    -0.83100
C54         C  0.19702890  0.80614127  0.89192627     0.97600
C55         C  0.13216524  0.74620389  0.97108559     1.05100
O56         O  0.21529697  0.79626611  0.98768440    -1.12100
O57         O  0.21934491  0.79793227  0.07600643    -0.74600
O58         O  0.19030637  0.82342711  0.05382206    -0.78000
O59         O  0.21458112  0.79152997  0.89898230    -0.78700
C60         C  0.20063362  0.81129022  0.08297765     0.96500
O61         O  0.23243551  0.86589142  0.98052654    -0.76700
O62         O  0.24546733  0.75838107  0.02923904    -0.81900
C63         C  0.28696293  0.79686608  0.96391671     0.99100
C64         C  0.22075489  0.72976691  0.01493525     1.05100
O65         O  0.25959763  0.77130167  0.94817181    -0.77500
C66         C  0.25890458  0.87932556  0.00395641     1.03400
Fe67       Fe  0.19489033  0.80987006  0.48621657     1.65800
Fe68       Fe  0.25590512  0.79506855  0.52524047     1.73200
Fe69       Fe  0.20505015  0.74694021  0.44676235     1.54400
O70         O  0.15217416  0.73355014  0.44685707    -0.81300
O71         O  0.28958145  0.80188675  0.47754406    -0.79600
O72         O  0.14815359  0.76602564  0.49637703    -0.83800
O73         O  0.18612736  0.80421115  0.42109574    -0.78600
O74         O  0.19371584  0.71342469  0.49444653    -0.80400
O75         O  0.27433137  0.84868572  0.52270640    -0.83100
C76         C  0.19783489  0.79398140  0.39110865     0.97600
C77         C  0.13385964  0.74054253  0.47149867     1.05100
O78         O  0.21867749  0.78404836  0.48628946    -1.12100
O79         O  0.22468277  0.78980713  0.57500501    -0.74600
O80         O  0.19977557  0.81860560  0.55135944    -0.78000
O81         O  0.21550712  0.77959800  0.39791101    -0.78700
C82         C  0.20926761  0.80664808  0.58129111     0.96500
O83         O  0.24090405  0.85442573  0.47591927    -0.76700
O84         O  0.24173161  0.74208218  0.53204551    -0.81900
C85         C  0.28573739  0.77711888  0.45483738     0.99100
C86         C  0.21521415  0.71354440  0.52014606     1.05100
O87         O  0.25562095  0.75389825  0.44234285    -0.77500
C88         C  0.26750726  0.86740735  0.49922558     1.03400
Fe89       Fe  0.81852695  0.62986419  0.00641947     1.65800
Fe90       Fe  0.80184159  0.55448340  0.04588831     1.73200
Fe91       Fe  0.75214465  0.55570704  0.96984261     1.54400
O92         O  0.73909289  0.59467252  0.97129055    -0.81300
O93         O  0.80922672  0.52997936  0.99703821    -0.79600
O94         O  0.77528908  0.63364776  0.01682913    -0.83800
O95         O  0.81355242  0.63213718  0.94098422    -0.78600
O96         O  0.71912414  0.53312090  0.01876227    -0.80400
O97         O  0.85561606  0.58972447  0.04440432    -0.83100
C98         C  0.80139617  0.60934321  0.91193926     0.97600
C99         C  0.74793441  0.62084699  0.99490824     1.05100
O100        O  0.79082585  0.58025769  0.00746284    -1.12100
O101        O  0.79553928  0.57942623  0.09538306    -0.74600
O102        O  0.82659624  0.63338042  0.07180836    -0.78000
O103        O  0.78345172  0.57738264  0.91940296    -0.78700
C104        C  0.81349761  0.61168025  0.10166894     0.96500
O105        O  0.86297962  0.62803979  0.99592273    -0.76700
O106        O  0.74943223  0.51405895  0.05144814    -0.81900
C107        C  0.78413101  0.50759654  0.97578105     0.99100
C108        C  0.72024433  0.51008766  0.03982624     1.05100
O109        O  0.75966712  0.51285096  0.96474347    -0.77500
C110        C  0.87470998  0.61338346  0.01871052     1.03400
Fe111      Fe  0.81597197  0.62231925  0.50598260     1.65800
Fe112      Fe  0.80110442  0.54623174  0.54133243     1.73200
Fe113      Fe  0.75274546  0.54880931  0.46515367     1.54400
O114        O  0.73882241  0.58720638  0.46561139    -0.81300
O115        O  0.81098492  0.52571396  0.49001029    -0.79600
O116        O  0.77146685  0.62432283  0.51520038    -0.83800
O117        O  0.81259687  0.62595402  0.44039831    -0.78600
O118        O  0.72077561  0.52782084  0.51507852    -0.80400
O119        O  0.85478257  0.58272885  0.54239846    -0.83100
C120        C  0.80230154  0.60423999  0.41003583     0.97600
C121        C  0.74529953  0.61160093  0.49126968     1.05100
O122        O  0.79017141  0.57291721  0.50422470    -1.12100
O123        O  0.79256862  0.56834184  0.59236495    -0.74600
O124        O  0.82171806  0.62335245  0.57177350    -0.78000
O125        O  0.78518579  0.57182805  0.41567722    -0.78700
C126        C  0.80861742  0.60044680  0.60045190     0.96500
O127        O  0.86139902  0.62239475  0.49633723    -0.76700
O128        O  0.74824102  0.50401952  0.54329844    -0.81900
C129        C  0.78483372  0.50065657  0.47355493     0.99100
C130        C  0.72008774  0.50175825  0.53003987     1.05100
O131        O  0.76011707  0.50495253  0.46080989    -0.77500
C132        C  0.87353626  0.60711519  0.51726589     1.03400
Fe133      Fe  0.62474203  0.81838638  0.00434904     1.65800
Fe134      Fe  0.55148760  0.75628980  0.04759332     1.73200
Fe135      Fe  0.54719553  0.79780457  0.96470813     1.54400
O136        O  0.58397601  0.85065379  0.95713715    -0.81300
O137        O  0.52948752  0.72203666  0.00022775    -0.79600
O138        O  0.62241563  0.86250671  0.00744171    -0.83800
O139        O  0.62541452  0.81900895  0.93831626    -0.78600
O140        O  0.52465778  0.81104664  0.01063897    -0.80400
O141        O  0.58941982  0.74143792  0.04717152    -0.83100
C142        C  0.60278612  0.80201730  0.91002659     0.97600
C143        C  0.60857303  0.87226880  0.98057329     1.05100
O144        O  0.57481617  0.79139576  0.00626732    -1.12100
O145        O  0.57547614  0.79021028  0.09553543    -0.74600
O146        O  0.62955952  0.82029398  0.07000039    -0.78000
O147        O  0.57033483  0.78527080  0.91787893    -0.78700
C148        C  0.60790658  0.81048862  0.10040191     0.96500
O149        O  0.62926654  0.77553303  0.00105548    -0.76700
O150        O  0.50870700  0.76596896  0.05181510    -0.81900
C151        C  0.50256169  0.71967759  0.98523340     0.99100
C152        C  0.50368567  0.78960848  0.03691170     1.05100
O153        O  0.50431721  0.74618169  0.96855981    -0.77500
C154        C  0.61501309  0.74844732  0.02290225     1.03400
Fe155      Fe  0.62141415  0.81145411  0.50445140     1.65800
Fe156      Fe  0.54885674  0.74406496  0.54123895     1.73200
Fe157      Fe  0.54333059  0.79131300  0.46615677     1.54400
O158        O  0.57743491  0.84499167  0.46592772    -0.81300
O159        O  0.53020508  0.71419278  0.48943078    -0.79600
O160        O  0.61749176  0.85440986  0.51331613    -0.83800
O161        O  0.62322033  0.81692499  0.43886225    -0.78600
O162        O  0.51951686  0.79912031  0.51571450    -0.80400
O163        O  0.58901859  0.73256486  0.53953518    -0.83100
C164        C  0.60113563  0.80252317  0.40927351     0.97600
C165        C  0.60121922  0.86490857  0.49135892     1.05100
O166        O  0.57165484  0.78286655  0.50450541    -1.12100
O167        O  0.56968450  0.77417433  0.59270511    -0.74600
O168        O  0.62416156  0.80879696  0.57021910    -0.78000
O169        O  0.56847673  0.78528068  0.41594130    -0.78700
C170        C  0.60145770  0.79603688  0.59957603     0.96500
O171        O  0.62832516  0.77005384  0.49543476    -0.76700
O172        O  0.50386426  0.74976493  0.54731300    -0.81900
C173        C  0.50255223  0.71117582  0.47586460     0.99100
C174        C  0.49791559  0.77391682  0.53726587     1.05100
O175        O  0.50247911  0.73813630  0.46359857    -0.77500
C176        C  0.61560541  0.74239705  0.51613138     1.03400
Fe177      Fe  0.80041328  0.18824683  0.99232522     1.65800
Fe178      Fe  0.73667609  0.20037215  0.02808875     1.73200
Fe179      Fe  0.79049399  0.25206247  0.95455792     1.54400
O180        O  0.84366978  0.26852209  0.95891219    -0.81300
O181        O  0.70825219  0.19114662  0.97521819    -0.79600
O182        O  0.84722669  0.23247098  0.00299643    -0.83800
O183        O  0.80812970  0.19196014  0.92674099    -0.78600
O184        O  0.79716363  0.28171441  0.00554114    -0.80400
O185        O  0.72077625  0.14784224  0.02805359    -0.83100
C186        C  0.79734704  0.20289614  0.89682295     0.97600
C187        C  0.86111938  0.26072287  0.98330407     1.05100
O188        O  0.77633104  0.21357420  0.99182173    -1.12100
O189        O  0.76604822  0.20805128  0.08029486    -0.74600
O190        O  0.79430084  0.18151741  0.05781742    -0.78000
O191        O  0.78509069  0.22264881  0.90317434    -0.78700
C192        C  0.78304218  0.19281770  0.08735988     0.96500
O193        O  0.75509126  0.14270734  0.98161242    -0.76700
O194        O  0.74466760  0.25150751  0.03169956    -0.81900
C195        C  0.70917489  0.21720289  0.95990235     0.99100
C196        C  0.76991732  0.28025552  0.01896134     1.05100
O197        O  0.73835077  0.24225791  0.94748444    -0.77500
C198        C  0.72722526  0.12979117  0.00277418     1.03400
Fe199      Fe  0.81025542  0.18206037  0.49109162     1.65800
Fe200      Fe  0.74912070  0.19531569  0.53303349     1.73200
Fe201      Fe  0.79715009  0.24445210  0.45477691     1.54400
O202        O  0.85035706  0.26096791  0.45350411    -0.81300
O203        O  0.71703664  0.18380998  0.48346957    -0.79600
O204        O  0.85729174  0.22650503  0.49708106    -0.83800
O205        O  0.81458781  0.18474742  0.42515954    -0.78600
O206        O  0.80734644  0.27572659  0.50519617    -0.80400
O207        O  0.73387310  0.14279032  0.53459481    -0.83100
C208        C  0.80292522  0.19580630  0.39640323     0.97600
C209        C  0.86945809  0.25377915  0.47565226     1.05100
O210        O  0.78598659  0.20725052  0.49296486    -1.12100
O211        O  0.78238928  0.20554097  0.58168158    -0.74600
O212        O  0.80855118  0.17739640  0.55718776    -0.78000
O213        O  0.78845298  0.21341945  0.40407877    -0.78700
C214        C  0.80017649  0.19096180  0.58719788     0.96500
O215        O  0.76458319  0.13609707  0.48445663    -0.76700
O216        O  0.75679630  0.24664454  0.53575873    -0.81900
C217        C  0.71668562  0.20934376  0.46855735     0.99100
C218        C  0.78108404  0.27502540  0.52080760     1.05100
O219        O  0.74464666  0.23428303  0.45320999    -0.77500
C220        C  0.73890278  0.12368321  0.50929856     1.03400
Fe221      Fe  0.17512993  0.37894227  0.00479694     1.65800
Fe222      Fe  0.19460250  0.45494793  0.04729414     1.73200
Fe223      Fe  0.23885524  0.45212836  0.96437787     1.54400
O224        O  0.25259457  0.41368537  0.96454922    -0.74100
O225        O  0.18671334  0.48234267  0.00341194    -0.79600
O226        O  0.21906745  0.37610803  0.01326577    -0.83800
O227        O  0.17876440  0.37510167  0.93914535    -0.78600
O228        O  0.27492598  0.47593099  0.00955458    -0.80400
O229        O  0.14023748  0.42045279  0.04655212    -0.83100
C230        C  0.18849359  0.39702369  0.90959472     0.97600
C231        C  0.24641376  0.39012064  0.99098601     1.05100
O232        O  0.20274889  0.42875912  0.00534345    -1.12100
O233        O  0.20219877  0.42864924  0.09350879    -0.74600
O234        O  0.16760058  0.37528336  0.07029266    -0.78000
O235        O  0.20435666  0.42909253  0.91686429    -0.78700
C236        C  0.18284045  0.39671486  0.10009608     0.96500
O237        O  0.13111631  0.38169389  0.99671433    -0.76700
O238        O  0.24779528  0.49415204  0.05112411    -0.81900
C239        C  0.20938954  0.50198681  0.97740322     0.99100
C240        C  0.27589005  0.49777741  0.03527939     1.05100
O241        O  0.23110122  0.49454614  0.96125525    -0.77500
C242        C  0.12042751  0.39737090  0.02015921     1.03400
Fe243      Fe  0.18640378  0.36799555  0.50369788     1.65800
Fe244      Fe  0.19853175  0.44068514  0.54678915     1.73200
Fe245      Fe  0.24788031  0.44441661  0.46749897     1.54400
O246        O  0.26443116  0.40780647  0.46536310    -0.81300
O247        O  0.18743499  0.46224904  0.49912166    -0.79600
O248        O  0.23200784  0.36868053  0.51325254    -0.83800
O249        O  0.19219768  0.36724020  0.43768131    -0.78600
O250        O  0.28073617  0.46561520  0.51571381    -0.80400
O251        O  0.14549743  0.40268129  0.54552655    -0.83100
C252        C  0.20065197  0.39019129  0.40938456     0.97600
C253        C  0.25948628  0.38425422  0.49135842     1.05100
O254        O  0.21107613  0.41738476  0.50627985    -1.12100
O255        O  0.20774755  0.41697291  0.59441663    -0.74600
O256        O  0.17720137  0.36327486  0.56952762    -0.78000
O257        O  0.21520894  0.42203778  0.41827948    -0.78700
C258        C  0.18914457  0.38478255  0.60012403     0.96500
O259        O  0.14058974  0.36694685  0.49394566    -0.76700
O260        O  0.25055149  0.48352523  0.55166029    -0.81900
C261        C  0.21157935  0.48821839  0.48171503     0.99100
C262        C  0.27980259  0.48798510  0.53856348     1.05100
O263        O  0.23779934  0.48661387  0.46776488    -0.77500
C264        C  0.12759848  0.38011182  0.51787066     1.03400
C265        C  0.20805586  0.39501965  0.79399693    -0.05100
C266        C  0.17554827  0.36946786  0.77829146     0.09100
C267        C  0.14739641  0.35135033  0.80616516    -0.02400
C268        C  0.15143179  0.35963403  0.84932914    -0.00700
C269        C  0.18384637  0.38579000  0.86491635    -0.04300
C270        C  0.21235436  0.40284554  0.83696575     0.02700
C271        C  0.17071817  0.36526691  0.73183172     0.09500
C272        C  0.11406968  0.32489533  0.79011008     0.35400
C273        C  0.24644302  0.42864215  0.85224426     0.38900
C274        C  0.18416606  0.34778003  0.70839422    -0.04700
C275        C  0.18785172  0.35168456  0.66447682     0.02500
C276        C  0.17859510  0.37355728  0.64405316    -0.04300
C277        C  0.16236461  0.38858689  0.66730531    -0.00500
C278        C  0.15813081  0.38411497  0.71081805    -0.03100
C279        C  0.19557631  0.32704953  0.72987422     0.36200
C280        C  0.15096045  0.40982056  0.64677798     0.39800
C281        C  0.20308275  0.33497143  0.64082634     0.38900
C282        C  0.14249624  0.40056713  0.73440766     0.35900
C283        C  0.23688136  0.41439288  0.76545291     0.36500
C284        C  0.12174040  0.34271850  0.87715554     0.39800
N285        N  0.21516366  0.32150849  0.62199002    -0.38300
N286        N  0.20462484  0.31049670  0.74718762    -0.39900
N287        N  0.14183363  0.42689202  0.63090397    -0.37600
N288        N  0.12988929  0.41353613  0.75321219    -0.40000
N289        N  0.08746913  0.30376282  0.77722605    -0.39800
N290        N  0.09802202  0.32940576  0.89938094    -0.37400
N291        N  0.27360535  0.44925650  0.86433496    -0.38500
N292        N  0.25971043  0.42986296  0.74256424    -0.40100
C293        C  0.18062294  0.35159228  0.20178325    -0.05100
C294        C  0.17584632  0.37245019  0.23118498     0.09100
C295        C  0.16894456  0.39798796  0.21706629    -0.02400
C296        C  0.16939677  0.40443421  0.17409683    -0.00700
C297        C  0.17686227  0.38540155  0.14451776    -0.04300
C298        C  0.18119243  0.35805247  0.15847598     0.02700
C299        C  0.18329109  0.37173703  0.27667431     0.09500
C300        C  0.16304223  0.41887755  0.24709665     0.35400
C301        C  0.18857430  0.33812901  0.12867568     0.38900
C302        C  0.21637932  0.39619191  0.29205067    -0.04700
C303        C  0.22245853  0.40054901  0.33535192     0.02500
C304        C  0.19528615  0.38069920  0.36406959    -0.04300
C305        C  0.16283721  0.35447360  0.34856805    -0.00500
C306        C  0.15685997  0.35011462  0.30493634    -0.03100
C307        C  0.24381139  0.41811880  0.26305156     0.36200
C308        C  0.13499268  0.33330277  0.37733811     0.39800
C309        C  0.25685716  0.42592757  0.35019858     0.38900
C310        C  0.12314078  0.32439012  0.28902523     0.35900
C311        C  0.18622988  0.32437752  0.21630586     0.36500
C312        C  0.16283966  0.43135472  0.16046601     0.39800
N313        N  0.28427948  0.44625130  0.36189591    -0.38300
N314        N  0.26546305  0.43564279  0.23977356    -0.39900
N315        N  0.11278220  0.31637035  0.40032910    -0.37600
N316        N  0.09625130  0.30382497  0.27620419    -0.40000
N317        N  0.15848697  0.43561662  0.27105024    -0.39800
N318        N  0.15776437  0.45287518  0.14951442    -0.37400
N319        N  0.19458980  0.32229307  0.10490845    -0.38500
N320        N  0.19051252  0.30253491  0.22799920    -0.40100
C321        C  0.96611802  0.28607106  0.46983853    -0.05100
C322        C  0.98008436  0.31849978  0.48972569     0.09100
C323        C  0.95794538  0.33106829  0.50147191    -0.02400
C324        C  0.92178612  0.31086883  0.49429749    -0.00700
C325        C  0.90759693  0.27757869  0.47653773    -0.04300
C326        C  0.92998023  0.26558794  0.46347609     0.02700
C327        C  0.01808858  0.33859587  0.49938348     0.09500
C328        C  0.97232308  0.36425644  0.52223092     0.35400
C329        C  0.91576046  0.23212179  0.44333773     0.38900
C330        C  0.04208773  0.35968501  0.46865703    -0.04700
C331        C  0.07809043  0.37449959  0.47552818     0.02500
C332        C  0.09020910  0.36829405  0.51321864    -0.04300
C333        C  0.06625505  0.34867430  0.54481701    -0.00500
C334        C  0.03024620  0.33400728  0.53796698    -0.03100
C335        C  0.02958880  0.36547913  0.42966995     0.36200
C336        C  0.07845140  0.34172116  0.58329315     0.39800
C337        C  0.10274397  0.39596592  0.44370939     0.38900
C338        C  0.00554530  0.31328162  0.57009560     0.35900
C339        C  0.98897972  0.27345922  0.45689796     0.36500
C340        C  0.89915359  0.32388560  0.50658563     0.39800
N341        N  0.12249316  0.41315519  0.41845517    -0.38300
N342        N  0.01953619  0.37010767  0.39861980    -0.39900
N343        N  0.08793757  0.33578983  0.61392708    -0.37600
N344        N  0.98577458  0.29684260  0.59573351    -0.40000
N345        N  0.98382717  0.39063949  0.53908047    -0.39800
N346        N  0.88134230  0.33459986  0.51626725    -0.37400
N347        N  0.90437204  0.20545543  0.42721629    -0.38500
N348        N  0.00732887  0.26353195  0.44662104    -0.40100
C349        C  0.94847421  0.34313029  0.00324711    -0.05100
C350        C  0.97188576  0.33090876  0.99871656     0.09100
C351        C  0.95899742  0.29581012  0.98933942    -0.02400
C352        C  0.92289583  0.27280830  0.98562514    -0.00700
C353        C  0.89926836  0.28508366  0.98858295    -0.04300
C354        C  0.91231885  0.32042068  0.99787298     0.02700
C355        C  0.01016488  0.35426477  0.00562561     0.09500
C356        C  0.98311111  0.28336648  0.98343830     0.35400
C357        C  0.88853786  0.33311514  0.00473150     0.38900
C358        C  0.02424271  0.35788154  0.04593169    -0.04700
C359        C  0.06064582  0.37440181  0.05148521     0.02500
C360        C  0.08313750  0.38719103  0.01660803    -0.04300
C361        C  0.06906130  0.38632112  0.97685462    -0.00500
C362        C  0.03269551  0.36978143  0.97138213    -0.03100
C363        C  0.00106519  0.34313386  0.08140923     0.36200
C364        C  0.09208929  0.40238395  0.94148531     0.39800
C365        C  0.07465161  0.37626700  0.09271742     0.38900
C366        C  0.01832370  0.36761288  0.93027571     0.35900
C367        C  0.96169987  0.37901995  0.01402110     0.36500
C368        C  0.91025031  0.23633513  0.97979760     0.39800
N369        N  0.08555468  0.37763123  0.12577469    -0.38300
N370        N  0.98245853  0.33133946  0.10962060    -0.39900
N371        N  0.11052302  0.41539906  0.91340159    -0.37600
N372        N  0.00681768  0.36586942  0.89748640    -0.40000
N373        N  0.00242489  0.27360775  0.97835910    -0.39800
N374        N  0.90030410  0.20717398  0.97615072    -0.37400
N375        N  0.86988607  0.34355942  0.01068977    -0.38500
N376        N  0.97236861  0.40766451  0.02276494    -0.40100
C377        C  0.77712087  0.18437696  0.78062993    -0.05100
C378        C  0.80715939  0.18493843  0.76539826     0.09100
C379        C  0.83254286  0.18786825  0.79379085    -0.02400
C380        C  0.82904323  0.19252117  0.83698283    -0.00700
C381        C  0.79947398  0.19328508  0.85233001    -0.04300
C382        C  0.77297482  0.18796203  0.82372075     0.02700
C383        C  0.81287979  0.18560298  0.71906836     0.09500
C384        C  0.86275579  0.18704372  0.77826048     0.35400
C385        C  0.74129706  0.18646407  0.83826861     0.38900
C386        C  0.83090806  0.21761702  0.69846548    -0.04700
C387        C  0.82918513  0.21915413  0.65463202     0.02500
C388        C  0.80968082  0.18865687  0.63098351    -0.04300
C389        C  0.79433407  0.15639267  0.65126641    -0.00500
C390        C  0.79593403  0.15491167  0.69523664    -0.03100
C391        C  0.84958992  0.24914624  0.72271800     0.36200
C392        C  0.77453868  0.12482797  0.62737335     0.39800
C393        C  0.84641810  0.25228068  0.63385812     0.38900
C394        C  0.77857726  0.12193534  0.71628173     0.35900
C395        C  0.75098266  0.18150236  0.75147940     0.36500
C396        C  0.85719995  0.19894846  0.86476603     0.39800
N397        N  0.86009260  0.27864832  0.61715948    -0.38300
N398        N  0.86448792  0.27421754  0.74223360    -0.39900
N399        N  0.75861776  0.09955229  0.60849744    -0.37600
N400        N  0.76474195  0.09565156  0.73316474    -0.40000
N401        N  0.88680651  0.18624620  0.76590828    -0.39800
N402        N  0.88009472  0.20429780  0.88636853    -0.37400
N403        N  0.71604944  0.18531217  0.84976852    -0.38500
N404        N  0.73033672  0.17939020  0.72806727    -0.40100
C405        C  0.76622677  0.17274621  0.20372240    -0.05100
C406        C  0.79891142  0.17910471  0.21766069     0.09100
C407        C  0.82567589  0.18715174  0.18826873    -0.02400
C408        C  0.82069230  0.19144160  0.14564276    -0.00700
C409        C  0.78842346  0.18676321  0.13186737    -0.04300
C410        C  0.76086751  0.17623132  0.16114872     0.02700
C411        C  0.80623478  0.18246482  0.26368081     0.09500
C412        C  0.85864091  0.19176873  0.20226086     0.35400
C413        C  0.72662585  0.16858820  0.14772565     0.38900
C414        C  0.79226315  0.15319439  0.28976847    -0.04700
C415        C  0.79300356  0.15717369  0.33374174     0.02500
C416        C  0.80800442  0.19046637  0.35161114    -0.04300
C417        C  0.82511947  0.21964556  0.32549518    -0.00500
C418        C  0.82385394  0.21567929  0.28181529    -0.03100
C419        C  0.77618868  0.11907433  0.27121830     0.36200
C420        C  0.84389358  0.25401688  0.34358648     0.39800
C421        C  0.77682525  0.12712984  0.36039394     0.38900
C422        C  0.83922979  0.24594871  0.25539495     0.35900
C423        C  0.73830072  0.16365369  0.23360921     0.36500
C424        C  0.84949322  0.20265084  0.11662581     0.39800
N425        N  0.76398604  0.10319954  0.38177521    -0.38300
N426        N  0.76343948  0.09183439  0.25636467    -0.39900
N427        N  0.85910343  0.28149132  0.35774949    -0.37600
N428        N  0.85146933  0.27001167  0.23423058    -0.40000
N429        N  0.88486579  0.19528979  0.21349826    -0.39800
N430        N  0.87255884  0.21177100  0.09353407    -0.37400
N431        N  0.69923250  0.16231992  0.13724351    -0.38500
N432        N  0.71607083  0.15632168  0.25751137    -0.40100
C433        C  0.37430089  0.55274808  0.51877642    -0.05100
C434        C  0.37360944  0.58370526  0.51674788     0.09100
C435        C  0.34368231  0.58404106  0.53102178    -0.02400
C436        C  0.31383312  0.55322595  0.54425437    -0.00700
C437        C  0.31344134  0.52156409  0.54259232    -0.04300
C438        C  0.34506466  0.52231108  0.53322272     0.02700
C439        C  0.40629246  0.61652943  0.50510485     0.09500
C440        C  0.34340176  0.61604151  0.53173495     0.35400
C441        C  0.34770636  0.49161588  0.53805118     0.38900
C442        C  0.40973581  0.63336163  0.46675093    -0.04700
C443        C  0.44103805  0.66414952  0.45665490     0.02500
C444        C  0.46960804  0.67778358  0.48422900    -0.04300
C445        C  0.46614215  0.66010577  0.52236036    -0.00500
C446        C  0.43466422  0.63013986  0.53272062    -0.03100
C447        C  0.38142940  0.61870387  0.43713484     0.36200
C448        C  0.49371346  0.67370213  0.55328612     0.39800
C449        C  0.44408469  0.68127032  0.41744448     0.38900
C450        C  0.43062160  0.61443657  0.57342414     0.35900
C451        C  0.40514966  0.55210558  0.50523006     0.36500
C452        C  0.28372774  0.55432247  0.55959645     0.39800
N453        N  0.44648605  0.69492904  0.38612480    -0.38300
N454        N  0.35930746  0.60745914  0.41278148    -0.39900
N455        N  0.51517875  0.68390925  0.57850479    -0.37600
N456        N  0.42726102  0.60204759  0.60589263    -0.40000
N457        N  0.34283048  0.64144497  0.53230733    -0.39800
N458        N  0.25978887  0.55507763  0.57245470    -0.37400
N459        N  0.34999865  0.46726062  0.54173987    -0.38500
N460        N  0.42980234  0.55173240  0.49447324    -0.40100
C461        C  0.63452542  0.95871975  0.46303908    -0.05100
C462        C  0.64545168  0.97481739  0.50243894     0.09100
C463        C  0.63665932  0.95446752  0.53856968    -0.02400
C464        C  0.62009762  0.91827816  0.53507894    -0.00700
C465        C  0.61176119  0.90206476  0.49526078    -0.04300
C466        C  0.61706581  0.92240115  0.45947253     0.02700
C467        C  0.66906056  0.01307590  0.50556219     0.09500
C468        C  0.64561789  0.97097412  0.57930820     0.35400
C469        C  0.60593841  0.90632129  0.41874626     0.38900
C470        C  0.65546823  0.03531332  0.50837064    -0.04700
C471        C  0.67810684  0.07144285  0.50947374     0.02500
C472        C  0.71465412  0.08556346  0.50913174    -0.04300
C473        C  0.72809500  0.06295209  0.50735003    -0.00500
C474        C  0.70538798  0.02697029  0.50535212    -0.03100
C475        C  0.61810727  0.02086477  0.51019295     0.36200
C476        C  0.76536487  0.07650507  0.50832639     0.39800
C477        C  0.66356742  0.09388254  0.50852607     0.38900
C478        C  0.71936420  0.00401391  0.50313098     0.35900
C479        C  0.64268469  0.97973118  0.42597953     0.36500
C480        C  0.61178591  0.89783001  0.57270257     0.39800
N481        N  0.65158100  0.11145204  0.50728801    -0.38300
N482        N  0.58828790  0.00924623  0.51193366    -0.39900
N483        N  0.79506742  0.08725286  0.50907459    -0.37600
N484        N  0.73035832  0.98558634  0.50140888    -0.40000
N485        N  0.65265004  0.98417787  0.61178137    -0.39800
N486        N  0.60535502  0.88172610  0.60284420    -0.37400
N487        N  0.59678112  0.89353914  0.38625140    -0.38500
N488        N  0.64934674  0.99658652  0.39645949    -0.40100
C489        C  0.37063342  0.56355198  0.01475682    -0.05100
C490        C  0.37180193  0.59453509  0.02543242     0.09100
C491        C  0.34421597  0.59319037  0.04886165    -0.02400
C492        C  0.31341545  0.56124147  0.05608601    -0.00700
C493        C  0.31073265  0.53003150  0.04163565    -0.04300
C494        C  0.34118858  0.53157305  0.02480425     0.02700
C495        C  0.40409919  0.62822074  0.01600033     0.09500
C496        C  0.34790878  0.62460935  0.06643646     0.35400
C497        C  0.34272318  0.50039470  0.01787514     0.38900
C498        C  0.40766520  0.64606375  0.97845926    -0.04700
C499        C  0.43977806  0.67558352  0.96780779     0.02500
C500        C  0.46857591  0.68780057  0.99481473    -0.04300
C501        C  0.46439133  0.67022131  0.03323611    -0.00500
C502        C  0.43248402  0.64064437  0.04338002    -0.03100
C503        C  0.37854462  0.63413679  0.95028476     0.36200
C504        C  0.49202421  0.68319577  0.06407327     0.39800
C505        C  0.44340374  0.69257221  0.92829039     0.38900
C506        C  0.42863075  0.62300467  0.08256443     0.35900
C507        C  0.39987897  0.56464406  0.99301219     0.36500
C508        C  0.28463870  0.56099567  0.07778546     0.39800
N509        N  0.44630409  0.70602400  0.89668196    -0.38300
N510        N  0.35608602  0.62580176  0.92675301    -0.39900
N511        N  0.51373995  0.69330849  0.08898570    -0.37600
N512        N  0.42554056  0.60903115  0.11381821    -0.40000
N513        N  0.35096034  0.64941838  0.08158005    -0.39800
N514        N  0.26174978  0.56087190  0.09522457    -0.37400
N515        N  0.34405131  0.47559867  0.01242227    -0.38500
N516        N  0.42316167  0.56563020  0.97550129    -0.40100
C517        C  0.67288747  0.04168660  0.95171414    -0.05100
C518        C  0.66153446  0.01992814  0.98673088     0.09100
C519        C  0.66798544  0.03441956  0.02720183    -0.02400
C520        C  0.68837619  0.07047726  0.03278001    -0.00700
C521        C  0.70183882  0.09230177  0.99769464    -0.04300
C522        C  0.69270948  0.07774607  0.95714307     0.02700
C523        C  0.64773640  0.98211004  0.98136602     0.09500
C524        C  0.65481967  0.01190529  0.06313230     0.35400
C525        C  0.70397215  0.09984121  0.92080032     0.38900
C526        C  0.67073801  0.96949359  0.98562817    -0.04700
C527        C  0.65817302  0.93381832  0.98379104     0.02500
C528        C  0.62228024  0.91016607  0.97684846    -0.04300
C529        C  0.59978945  0.92325598  0.96920872    -0.00500
C530        C  0.61237074  0.95905457  0.97258514    -0.03100
C531        C  0.70752692  0.99347784  0.99241635     0.36200
C532        C  0.56365394  0.90017049  0.95842086     0.39800
C533        C  0.68270609  0.92180740  0.98841329     0.38900
C534        C  0.58879775  0.97217451  0.96821907     0.35900
C535        C  0.66535670  0.02683746  0.91007408     0.36500
C536        C  0.69754089  0.08458646  0.07464202     0.39800
N537        N  0.70236280  0.91239711  0.99224142    -0.38300
N538        N  0.73680994  0.01273262  0.99778537    -0.39900
N539        N  0.53488901  0.88189741  0.94925371    -0.37600
N540        N  0.56996457  0.98264124  0.96497406    -0.40000
N541        N  0.64419525  0.99379914  0.09164052    -0.39800
N542        N  0.70481840  0.09532845  0.10828647    -0.37400
N543        N  0.71293226  0.11738490  0.89175235    -0.38500
N544        N  0.65933437  0.01500287  0.87683805    -0.40100
C545        C  0.64254067  0.83729931  0.80309585    -0.05100
C546        C  0.62416015  0.80764026  0.77796107     0.09100
C547        C  0.60318435  0.77532827  0.79689936    -0.02400
C548        C  0.59745252  0.77314288  0.84038292    -0.00700
C549        C  0.61392111  0.80323362  0.86565344    -0.04300
C550        C  0.63789619  0.83510699  0.84688658     0.02700
C551        C  0.62250506  0.81066945  0.73163498     0.09500
C552        C  0.58656809  0.74441806  0.77120253     0.35400
C553        C  0.65603735  0.86623531  0.87193904     0.38900
C554        C  0.64612083  0.80783920  0.70475459    -0.04700
C555        C  0.64094005  0.80562502  0.66105466     0.02500
C556        C  0.61166215  0.80566895  0.64411579    -0.04300
C557        C  0.58927217  0.81061735  0.67129592    -0.00500
C558        C  0.59496723  0.81348685  0.71467786    -0.03100
C559        C  0.67497727  0.80592376  0.72231503     0.36200
C560        C  0.55962427  0.81186034  0.65491337     0.39800
C561        C  0.66453218  0.80099937  0.63412277     0.38900
C562        C  0.57175867  0.81830567  0.74225492     0.35900
C563        C  0.66495361  0.87032324  0.78352833     0.36500
C564        C  0.57390406  0.73987920  0.85883311     0.39800
N565        N  0.68361455  0.79734444  0.61303008    -0.38300
N566        N  0.69799661  0.80440480  0.73639809    -0.39900
N567        N  0.53582020  0.81254464  0.64191974    -0.37600
N568        N  0.55337915  0.82225021  0.76433166    -0.40000
N569        N  0.57358883  0.71981429  0.75060945    -0.39800
N570        N  0.55504729  0.71336172  0.87350184    -0.37400
N571        N  0.67071961  0.89120734  0.89167015    -0.38500
N572        N  0.68278403  0.89662719  0.76778132    -0.40100
C573        C  0.64490206  0.84532273  0.30624778    -0.05100
C574        C  0.62662802  0.81785965  0.27787653     0.09100
C575        C  0.60362322  0.78452186  0.29320532    -0.02400
C576        C  0.59696058  0.77910624  0.33639966    -0.00700
C577        C  0.61327419  0.80707538  0.36488933    -0.04300
C578        C  0.63841344  0.84001246  0.34962804     0.02700
C579        C  0.62868127  0.82407714  0.23173102     0.09500
C580        C  0.58589316  0.75590397  0.26417174     0.35400
C581        C  0.65638984  0.86898170  0.37807520     0.38900
C582        C  0.64879766  0.81532597  0.20573511    -0.04700
C583        C  0.64452078  0.81384187  0.16191317     0.02500
C584        C  0.62017696  0.82134449  0.14398111    -0.04300
C585        C  0.60281628  0.83352565  0.16987858    -0.00500
C586        C  0.60686073  0.83465060  0.21356363    -0.03100
C587        C  0.67258208  0.80621715  0.22437985     0.36200
C588        C  0.57985288  0.84388779  0.15150840     0.39800
C589        C  0.66323703  0.80211175  0.13576288     0.38900
C590        C  0.58697164  0.84477282  0.24005817     0.35900
C591        C  0.66967316  0.87926019  0.29054782     0.36500
C592        C  0.57307217  0.74459639  0.35140726     0.39800
N593        N  0.67822610  0.79274842  0.11499006    -0.38300
N594        N  0.69156217  0.79899900  0.23939670    -0.39900
N595        N  0.56158188  0.85210401  0.13665604    -0.37600
N596        N  0.57107991  0.85277738  0.26125752    -0.40000
N597        N  0.57192082  0.73318559  0.24085619    -0.39800
N598        N  0.55396911  0.71709176  0.36335552    -0.37400
N599        N  0.67087097  0.89214035  0.40069221    -0.38500
N600        N  0.68947268  0.90632696  0.27798379    -0.40100
C601        C  0.79428553  0.42581245  0.51531456    -0.05100
C602        C  0.77127796  0.39804150  0.48985067     0.09100
C603        C  0.75312537  0.40380798  0.45786114    -0.02400
C604        C  0.75790931  0.43718888  0.45152088    -0.00700
C605        C  0.78085134  0.46529791  0.47736651    -0.04300
C606        C  0.79856766  0.45881843  0.50996036     0.02700
C607        C  0.76902517  0.36367483  0.49514846     0.09500
C608        C  0.72996769  0.37537080  0.43095192     0.35400
C609        C  0.82056953  0.48540296  0.53979418     0.38900
C610        C  0.75268752  0.34296416  0.53053498    -0.04700
C611        C  0.75578690  0.31366751  0.53894571     0.02500
C612        C  0.77593622  0.30514717  0.51240402    -0.04300
C613        C  0.79013732  0.32485014  0.47525428    -0.00500
C614        C  0.78726955  0.35410910  0.46736458    -0.03100
C615        C  0.73389465  0.35285416  0.55918988     0.36200
C616        C  0.80669731  0.31470365  0.44350066     0.39800
C617        C  0.73859994  0.29276776  0.57520491     0.38900
C618        C  0.80433284  0.37529444  0.43108048     0.35900
C619        C  0.81430482  0.42045507  0.54692242     0.36500
C620        C  0.73967287  0.44248638  0.41778732     0.39800
N621        N  0.72460544  0.27595413  0.60400278    -0.38300
N622        N  0.71930445  0.36125341  0.58206114    -0.39900
N623        N  0.81980202  0.30693506  0.41773911    -0.37600
N624        N  0.81792650  0.39218783  0.40220335    -0.40000
N625        N  0.71170516  0.35266868  0.40934214    -0.39800
N626        N  0.72509902  0.44661705  0.39076383    -0.37400
N627        N  0.83816714  0.50625132  0.56382576    -0.38500
N628        N  0.83021423  0.41608094  0.57199583    -0.40100
C629        C  0.68631730  0.64280436  0.53499918    -0.05100
C630        C  0.68369472  0.66080509  0.50068631     0.09100
C631        C  0.69945627  0.66069651  0.46234828    -0.02400
C632        C  0.71900599  0.64399039  0.45882908    -0.00700
C633        C  0.72208543  0.62638202  0.49334329    -0.04300
C634        C  0.70518039  0.62541412  0.53124748     0.02700
C635        C  0.66594036  0.68147950  0.50544631     0.09500
C636        C  0.69612663  0.67851700  0.42675696     0.35400
C637        C  0.70724323  0.60647687  0.56646238     0.38900
C638        C  0.68596683  0.71756833  0.51054525    -0.04700
C639        C  0.66962596  0.73741989  0.51370052     0.02500
C640        C  0.63281091  0.72122651  0.51302534    -0.04300
C641        C  0.61280857  0.68492547  0.50798270    -0.00500
C642        C  0.62936258  0.66524846  0.50399537    -0.03100
C643        C  0.72359854  0.73429451  0.51257753     0.36200
C644        C  0.57525753  0.66777157  0.50450752     0.39800
C645        C  0.69102231  0.77460202  0.51767169     0.38900
C646        C  0.60883457  0.62827104  0.49743465     0.35900
C647        C  0.67029258  0.64293725  0.57448600     0.36500
C648        C  0.73788087  0.64711425  0.42055564     0.39800
N649        N  0.70822302  0.80427824  0.52036171    -0.38300
N650        N  0.75359485  0.74757090  0.51418890    -0.39900
N651        N  0.54529968  0.65370641  0.50140801    -0.37600
N652        N  0.59254494  0.59877050  0.49211618    -0.40000
N653        N  0.69339832  0.69276610  0.39845258    -0.39800
N654        N  0.75317533  0.65042720  0.38996295    -0.37400
N655        N  0.70889364  0.59127990  0.59444236    -0.38500
N656        N  0.65750300  0.64310157  0.60597547    -0.40100
C657        C  0.77121884  0.35460157  0.96051748    -0.05100
C658        C  0.75871450  0.36831106  0.99094598     0.09100
C659        C  0.74655044  0.35117127  0.02955191    -0.02400
C660        C  0.74865475  0.32145530  0.03832630    -0.00700
C661        C  0.76484300  0.30997437  0.00961952    -0.04300
C662        C  0.77546251  0.32648901  0.97004228     0.02700
C663        C  0.76525665  0.40408879  0.98467808     0.09500
C664        C  0.73288169  0.36454314  0.06091090     0.35400
C665        C  0.79120732  0.31527333  0.93847603     0.38900
C666        C  0.74259805  0.41040239  0.96083310    -0.04700
C667        C  0.75061634  0.44458971  0.95309736     0.02500
C668        C  0.78114142  0.47289150  0.97011859    -0.04300
C669        C  0.80599482  0.46616142  0.98899008    -0.00500
C670        C  0.79761642  0.43205894  0.99699679    -0.03100
C671        C  0.71120316  0.38172893  0.94380305     0.36200
C672        C  0.84053533  0.49389128  0.00022251     0.39800
C673        C  0.72786512  0.45039287  0.92658573     0.38900
C674        C  0.82264301  0.42556372  0.01769700     0.35900
C675        C  0.78110310  0.37054332  0.91961983     0.36500
C676        C  0.73567668  0.30378127  0.07770607     0.39800
N677        N  0.71011657  0.45527594  0.90499531    -0.38300
N678        N  0.68609440  0.35910572  0.92980410    -0.39900
N679        N  0.86811174  0.51577515  0.00931770    -0.37600
N680        N  0.84248869  0.42021065  0.03404092    -0.40000
N681        N  0.72176783  0.37436170  0.08683079    -0.39800
N682        N  0.72515731  0.28961952  0.10907172    -0.37400
N683        N  0.80398856  0.30706463  0.91275445    -0.38500
N684        N  0.78865547  0.38314287  0.88701734    -0.40100
C685        C  0.72151933  0.68864228  0.01367965    -0.05100
C686        C  0.68507120  0.66890495  0.01007370     0.09100
C687        C  0.66911907  0.63378177  0.99886864    -0.02400
C688        C  0.68941986  0.61808670  0.99243759    -0.00700
C689        C  0.72609850  0.63753741  0.99735282    -0.04300
C690        C  0.74201309  0.67340435  0.00629493     0.02700
C691        C  0.66406649  0.68635922  0.01324985     0.09500
C692        C  0.63170295  0.61395284  0.99342671     0.35400
C693        C  0.77960098  0.69545409  0.00515166     0.38900
C694        C  0.66031428  0.70230247  0.97772659    -0.04700
C695        C  0.64300721  0.72117047  0.98059125     0.02500
C696        C  0.62948796  0.72478320  0.01944905    -0.04300
C697        C  0.63188100  0.70722170  0.05469223    -0.00500
C698        C  0.64939193  0.68835704  0.05156344    -0.03100
C699        C  0.67515202  0.69989328  0.93820167     0.36200
C700        C  0.61747951  0.70933360  0.09457453     0.39800
C701        C  0.63912278  0.73653655  0.94291973     0.38900
C702        C  0.65326532  0.67175234  0.08802192     0.35900
C703        C  0.73799729  0.72499453  0.02440754     0.36500
C704        C  0.67226433  0.58212077  0.97994919     0.39800
N705        N  0.63660213  0.74880122  0.91256770    -0.38300
N706        N  0.68713622  0.69800207  0.90683484    -0.39900
N707        N  0.60585710  0.71083951  0.12640550    -0.37600
N708        N  0.65648599  0.65855084  0.11708495    -0.40000
N709        N  0.60184648  0.59822327  0.98903562    -0.39800
N710        N  0.65848329  0.55357792  0.96927948    -0.37400
N711        N  0.80953253  0.71314707  0.00379957    -0.38500
N712        N  0.75108127  0.75393524  0.03307730    -0.40100
C713        C  0.80623087  0.64129884  0.70487645    -0.05100
C714        C  0.81522242  0.62287096  0.73278361     0.09100
C715        C  0.82456722  0.59933913  0.71670811    -0.02400
C716        C  0.82427077  0.59373429  0.67337585    -0.00700
C717        C  0.81340845  0.61067442  0.64541994    -0.04300
C718        C  0.80520353  0.63515391  0.66132630     0.02700
C719        C  0.81227862  0.62573383  0.77923712     0.09500
C720        C  0.83324987  0.57976678  0.74497434     0.35400
C721        C  0.79419449  0.65287590  0.63323392     0.38900
C722        C  0.77908301  0.60956624  0.79819434    -0.04700
C723        C  0.77592570  0.60685168  0.84196171     0.02500
C724        C  0.80588873  0.61937722  0.86727626    -0.04300
C725        C  0.83913769  0.63721179  0.84861417    -0.00500
C726        C  0.84231638  0.64068425  0.80470085    -0.03100
C727        C  0.74801238  0.59388424  0.77256980     0.36200
C728        C  0.86993672  0.64977243  0.87425313     0.39800
C729        C  0.74156206  0.59025345  0.86096878     0.38900
C730        C  0.87648433  0.65809814  0.78544545     0.35900
C731        C  0.79699907  0.66580102  0.72118368     0.36500
C732        C  0.83554307  0.57055742  0.65763533     0.39800
N733        N  0.71416993  0.57699430  0.87605884    -0.38300
N734        N  0.72322733  0.58136513  0.75216681    -0.39900
N735        N  0.89448215  0.65962302  0.89475241    -0.37600
N736        N  0.90371281  0.67178362  0.76994378    -0.40000
N737        N  0.84017455  0.56419823  0.76753649    -0.39800
N738        N  0.84464565  0.55215805  0.64520804    -0.37400
N739        N  0.78542312  0.66708311  0.61087731    -0.38500
N740        N  0.78940747  0.68516943  0.73429762    -0.40100
C741        C  0.84660896  0.64797508  0.30765169    -0.05100
C742        C  0.81831476  0.63177849  0.27969923     0.09100
C743        C  0.78454650  0.60989148  0.29549414    -0.02400
C744        C  0.77936918  0.60263325  0.33842668    -0.00700
C745        C  0.80803340  0.61645985  0.36607954    -0.04300
C746        C  0.84155839  0.64016451  0.35073775     0.02700
C747        C  0.82410341  0.63348045  0.23339244     0.09500
C748        C  0.75512228  0.59361175  0.26723814     0.35400
C749        C  0.87109331  0.65521044  0.37872733     0.38900
C750        C  0.83704574  0.61349552  0.21520224    -0.04700
C751        C  0.83581469  0.60865075  0.17168289     0.02500
C752        C  0.82101916  0.62321262  0.14586116    -0.04300
C753        C  0.81029081  0.64517878  0.16363137    -0.00500
C754        C  0.81216537  0.65057498  0.20735712    -0.03100
C755        C  0.84983350  0.59620281  0.24152531     0.36200
C756        C  0.79503339  0.66013058  0.13740926     0.39800
C757        C  0.84896547  0.58771970  0.15355113     0.38900
C758        C  0.80042211  0.67245509  0.22587752     0.35900
C759        C  0.88105220  0.67180837  0.29169333     0.36500
C760        C  0.74416450  0.58137793  0.35407830     0.39800
N761        N  0.85941610  0.57099126  0.13919593    -0.38300
N762        N  0.86004429  0.58247715  0.26256822    -0.39900
N763        N  0.78268216  0.67188512  0.11646047    -0.37600
N764        N  0.79104740  0.68989845  0.24076241    -0.40000
N765        N  0.73166508  0.58070101  0.24474074    -0.39800
N766        N  0.71587196  0.56496021  0.36605675    -0.37400
N767        N  0.89476005  0.66730478  0.40095028    -0.38500
N768        N  0.90851564  0.69082174  0.27882726    -0.40100
C769        C  0.34064476  0.74236422  0.48823981    -0.05100
C770        C  0.37499293  0.77002005  0.48174094     0.09100
C771        C  0.37950792  0.79732524  0.45555710    -0.02400
C772        C  0.35025776  0.79996020  0.44399721    -0.00700
C773        C  0.31624048  0.77202339  0.45096028    -0.04300
C774        C  0.31257322  0.74151062  0.46742194     0.02700
C775        C  0.40555910  0.77039065  0.50299499     0.09500
C776        C  0.41391276  0.82276624  0.44104383     0.35400
C777        C  0.28023307  0.70935139  0.46207688     0.38900
C778        C  0.40922094  0.74081134  0.50213633    -0.04700
C779        C  0.43442181  0.73971200  0.52708513     0.02500
C780        C  0.46286271  0.77029039  0.54182893    -0.04300
C781        C  0.45959876  0.79994441  0.54384889    -0.00500
C782        C  0.42974391  0.79912501  0.52734594    -0.03100
C783        C  0.38883097  0.71215604  0.47411564     0.36200
C784        C  0.48699159  0.83112808  0.56309711     0.39800
C785        C  0.42706344  0.70766081  0.54554315     0.38900
C786        C  0.42443482  0.82793912  0.53513698     0.35900
C787        C  0.33350323  0.71700863  0.51999682     0.36500
C788        C  0.35511545  0.83133937  0.42540576     0.39800
N789        N  0.41985720  0.68276424  0.56353244    -0.38300
N790        N  0.37281448  0.68943101  0.45142657    -0.39900
N791        N  0.50896655  0.85598483  0.57841858    -0.37600
N792        N  0.42033880  0.85104644  0.54127171    -0.40000
N793        N  0.44138155  0.84293947  0.42927623    -0.39800
N794        N  0.35907484  0.85655259  0.41088122    -0.37400
N795        N  0.25466533  0.68392038  0.45506803    -0.38500
N796        N  0.32883850  0.69770117  0.54627666    -0.40100
C797        C  0.18504684  0.62006472  0.50240445    -0.05100
C798        C  0.21272061  0.61695249  0.51851117     0.09100
C799        C  0.23630030  0.64285924  0.54620828    -0.02400
C800        C  0.23620723  0.67436707  0.55094539    -0.00700
C801        C  0.21035939  0.67862797  0.53092364    -0.04300
C802        C  0.18202457  0.64886529  0.51276816     0.02700
C803        C  0.21401486  0.58457173  0.50941980     0.09500
C804        C  0.25949484  0.63641028  0.57081480     0.35400
C805        C  0.14859259  0.64651140  0.50791083     0.38900
C806        C  0.23994332  0.58483041  0.48331767    -0.04700
C807        C  0.23849558  0.55351043  0.47178991     0.02500
C808        C  0.21042247  0.52131545  0.48500105    -0.04300
C809        C  0.18293433  0.52153001  0.50812883    -0.00500
C810        C  0.18634653  0.55266276  0.52294906    -0.03100
C811        C  0.26835075  0.61727263  0.46839649     0.36200
C812        C  0.15005172  0.49008039  0.51595024     0.39800
C813        C  0.26543824  0.55454150  0.44528134     0.38900
C814        C  0.16113810  0.55183299  0.55269325     0.35900
C815        C  0.15956205  0.59375048  0.47480124     0.36500
C816        C  0.26181442  0.70162951  0.57719289     0.39800
N817        N  0.28653586  0.55483376  0.42378361    -0.38300
N818        N  0.29139590  0.64286381  0.45620628    -0.39900
N819        N  0.12367730  0.46519110  0.52195542    -0.37600
N820        N  0.14115626  0.55116794  0.57648863    -0.40000
N821        N  0.27759928  0.63100377  0.59102631    -0.39800
N822        N  0.28214919  0.72337399  0.59839674    -0.37400
N823        N  0.12152646  0.64400376  0.50562746    -0.38500
N824        N  0.13928106  0.57278564  0.45276940    -0.40100
C825        C  0.97094292  0.64896730  0.53660100    -0.05100
C826        C  0.98356164  0.65296182  0.49511052     0.09100
C827        C  0.95953105  0.63765848  0.46208021    -0.02400
C828        C  0.92349401  0.61935981  0.47042171    -0.00700
C829        C  0.91096135  0.61868156  0.51123177    -0.04300
C830        C  0.93478969  0.63285529  0.54451374     0.02700
C831        C  0.02183981  0.67555416  0.48605813     0.09500
C832        C  0.97168475  0.64216930  0.41922557     0.35400
C833        C  0.92232384  0.63290624  0.58641340     0.38900
C834        C  0.04151414  0.66173355  0.46885672    -0.04700
C835        C  0.07727886  0.68345619  0.45972050     0.02500
C836        C  0.09472887  0.71870432  0.47190126    -0.04300
C837        C  0.07428201  0.73284412  0.48637085    -0.00500
C838        C  0.03818420  0.71144965  0.49308103    -0.03100
C839        C  0.02509174  0.62493065  0.46121586     0.36200
C840        C  0.08970638  0.76980913  0.49218310     0.39800
C841        C  0.09528121  0.66951482  0.43610544     0.38900
C842        C  0.01768716  0.72650715  0.50712870     0.35900
C843        C  0.99530336  0.66252991  0.57103555     0.36500
C844        C  0.89910293  0.60093008  0.43695941     0.39800
N845        N  0.10930322  0.65840470  0.41646973    -0.38300
N846        N  0.01199482  0.59558167  0.45507748    -0.39900
N847        N  0.10184960  0.79925405  0.49667386    -0.37600
N848        N  0.00135659  0.73846126  0.51849401    -0.40000
N849        N  0.98132280  0.64577572  0.38500472    -0.39800
N850        N  0.87956386  0.58582594  0.41052583    -0.37400
N851        N  0.91249377  0.63330852  0.61982145    -0.38500
N852        N  0.01481562  0.67341715  0.59842387    -0.40100
C853        C  0.40704919  0.76032328  0.03844744    -0.05100
C854        C  0.40875869  0.78975279  0.02054616     0.09100
C855        C  0.44107808  0.82092055  0.02025922    -0.02400
C856        C  0.47129388  0.82177784  0.03483136    -0.00700
C857        C  0.47084893  0.79083860  0.04429703    -0.04300
C858        C  0.43799640  0.76057670  0.04962287     0.02700
C859        C  0.37620081  0.78929804  0.00645436     0.09500
C860        C  0.44345555  0.85215483  0.00437351     0.35400
C861        C  0.43568794  0.73042526  0.06847302     0.38900
C862        C  0.36363612  0.80721109  0.03003707    -0.04700
C863        C  0.33540246  0.81011250  0.01566471     0.02500
C864        C  0.31799619  0.79405625  0.97749825    -0.04300
C865        C  0.32903006  0.77368468  0.95563772    -0.00500
C866        C  0.35825589  0.77177926  0.96970306    -0.03100
C867        C  0.37961089  0.82233257  0.06999987     0.36200
C868        C  0.31053245  0.75467675  0.91866401     0.39800
C869        C  0.32402171  0.82886641  0.04211426     0.38900
C870        C  0.36991652  0.75169668  0.94641430     0.35900
C871        C  0.37319664  0.73033149  0.04615011     0.36500
C872        C  0.50276007  0.85471930  0.04167626     0.39800
N873        N  0.31574728  0.84411475  0.06387090    -0.38300
N874        N  0.39230813  0.83438613  0.10177615    -0.39900
N875        N  0.29563933  0.73921336  0.88931538    -0.37600
N876        N  0.37919328  0.73549790  0.92810384    -0.40000
N877        N  0.44532881  0.87705700  0.99168951    -0.39800
N878        N  0.52767177  0.88093108  0.04809853    -0.37400
N879        N  0.43338455  0.70655033  0.08486794    -0.38500
N880        N  0.34561646  0.70718870  0.05225527    -0.40100
C881        C  0.23445571  0.65344241  0.03317887    -0.05100
C882        C  0.22525567  0.63710963  0.99362852     0.09100
C883        C  0.21788177  0.65275786  0.96071977    -0.02400
C884        C  0.21746724  0.68339759  0.96768547    -0.00700
C885        C  0.22459873  0.69902514  0.00808467    -0.04300
C886        C  0.23385333  0.68425402  0.04051693     0.02700
C887        C  0.22126105  0.60240103  0.98639776     0.09500
C888        C  0.21028839  0.63689064  0.91948254     0.35400
C889        C  0.24076516  0.69958901  0.08182386     0.38900
C890        C  0.18764434  0.57297135  0.98504952    -0.04700
C891        C  0.18337814  0.54026220  0.97658108     0.02500
C892        C  0.21285064  0.53644997  0.97098733    -0.04300
C893        C  0.24630383  0.56646110  0.96888405    -0.00500
C894        C  0.25040406  0.59928610  0.97650844    -0.03100
C895        C  0.15736507  0.57637414  0.99278264     0.36200
C896        C  0.27668741  0.56355549  0.96044659     0.39800
C897        C  0.14850624  0.51049629  0.97377782     0.38900
C898        C  0.28456927  0.63000251  0.97435887     0.35900
C899        C  0.24431099  0.63839236  0.06626869     0.36500
C900        C  0.20958009  0.69839648  0.93248267     0.39800
N901        N  0.12068932  0.48682283  0.97155581    -0.38300
N902        N  0.13323766  0.57910958  0.99885271    -0.39900
N903        N  0.30030780  0.56019974  0.95345253    -0.37600
N904        N  0.31165626  0.65472923  0.97257081    -0.40000
N905        N  0.20422281  0.62418583  0.88671673    -0.39800
N906        N  0.20326405  0.70964510  0.90374882    -0.37400
N907        N  0.24600651  0.71176253  0.11486061    -0.38500
N908        N  0.25257550  0.62663497  0.09262356    -0.40100
C909        C  0.97191035  0.66452392  0.03826305    -0.05100
C910        C  0.98475053  0.65689748  0.00174588     0.09100
C911        C  0.96129194  0.63168197  0.97356841    -0.02400
C912        C  0.92510034  0.61614125  0.98016320    -0.00700
C913        C  0.91224845  0.62519630  0.01548174    -0.04300
C914        C  0.93570892  0.64854659  0.04523855     0.02700
C915        C  0.02253922  0.67819354  0.99064843     0.09500
C916        C  0.97450453  0.62260577  0.93713029     0.35400
C917        C  0.92256098  0.65748267  0.08190046     0.38900
C918        C  0.04604350  0.66693527  0.00020513    -0.04700
C919        C  0.08186065  0.68807817  0.99100163     0.02500
C920        C  0.09432105  0.72080869  0.97279547    -0.04300
C921        C  0.07049383  0.73132090  0.96167949    -0.00500
C922        C  0.03478140  0.71012228  0.97057901    -0.03100
C923        C  0.03344598  0.63410080  0.02072612     0.36200
C924        C  0.08283972  0.76410472  0.94102400     0.39800
C925        C  0.10592218  0.67661125  0.00170571     0.38900
C926        C  0.01057464  0.72146650  0.95995387     0.35900
C927        C  0.99600402  0.68982723  0.06779668     0.36500
C928        C  0.90100379  0.59151984  0.95003841     0.39800
N929        N  0.12476498  0.66700578  0.01024845    -0.38300
N930        N  0.02335645  0.60793016  0.03722641    -0.39900
N931        N  0.09274121  0.79019801  0.92440382    -0.37600
N932        N  0.99115366  0.73041581  0.95167979    -0.40000
N933        N  0.98519245  0.61531221  0.90822052    -0.39800
N934        N  0.88172044  0.57190839  0.92602229    -0.37400
N935        N  0.91207032  0.66465925  0.11110136    -0.38500
N936        N  0.01524694  0.71007383  0.09130715    -0.40100
C937        C  0.17504243  0.78259675  0.77791743    -0.05100
C938        C  0.18936390  0.81530170  0.75917885     0.09100
C939        C  0.20136978  0.84490606  0.78490361    -0.02400
C940        C  0.20151328  0.84203298  0.82891914    -0.00700
C941        C  0.19015823  0.80960423  0.84728056    -0.04300
C942        C  0.17495409  0.77974279  0.82167529     0.02700
C943        C  0.19479118  0.81837142  0.71264785     0.09500
C944        C  0.21477215  0.87841862  0.76588558     0.35400
C945        C  0.15878686  0.74579591  0.84041890     0.38900
C946        C  0.16631364  0.80667713  0.68504397    -0.04700
C947        C  0.17094364  0.80407420  0.64164976     0.02500
C948        C  0.20423120  0.81375186  0.62554383    -0.04300
C949        C  0.23310475  0.82807055  0.65285082    -0.00500
C950        C  0.22831560  0.82971121  0.69616870    -0.03100
C951        C  0.13203634  0.79618462  0.70159291     0.36200
C952        C  0.26798983  0.84131494  0.63630469     0.39800
C953        C  0.14117428  0.78968891  0.61403507     0.38900
C954        C  0.25776317  0.84157038  0.72406154     0.35900
C955        C  0.16188945  0.75186690  0.75205520     0.36500
C956        C  0.21403871  0.87243626  0.85508311     0.39800
N957        N  0.11733979  0.77809355  0.59208654    -0.38300
N958        N  0.10466995  0.78773123  0.71486936    -0.39900
N959        N  0.29579545  0.85204455  0.62305589    -0.37600
N960        N  0.28119715  0.85093782  0.74635849    -0.40000
N961        N  0.22563409  0.90515558  0.75057147    -0.39800
N962        N  0.22364519  0.89673684  0.87587703    -0.37400
N963        N  0.14547060  0.71860860  0.85505620    -0.38500
N964        N  0.15139400  0.72737568  0.73142043    -0.40100
C965        C  0.21607518  0.82933169  0.19869062    -0.05100
C966        C  0.18217619  0.80967135  0.21502804     0.09100
C967        C  0.15351454  0.79384821  0.18754409    -0.02400
C968        C  0.15901875  0.79613238  0.14378460    -0.00700
C969        C  0.19321222  0.81435237  0.12757061    -0.04300
C970        C  0.22159053  0.83159245  0.15533909     0.02700
C971        C  0.17809869  0.80265517  0.26094615     0.09500
C972        C  0.11860853  0.77419013  0.20441465     0.35400
C973        C  0.25695684  0.85091529  0.13962445     0.38900
C974        C  0.18243298  0.82860229  0.28950563    -0.04700
C975        C  0.18839675  0.82589712  0.33223761     0.02500
C976        C  0.18893176  0.79654624  0.34686912    -0.04300
C977        C  0.18091729  0.76899745  0.31860742    -0.00500
C978        C  0.17643197  0.77246219  0.27581028    -0.03100
C979        C  0.18212929  0.85871983  0.27434829     0.36200
C980        C  0.17688293  0.73670813  0.33334542     0.39800
C981        C  0.19589634  0.85421174  0.36040781     0.38900
C982        C  0.17192854  0.74563992  0.24659647     0.35900
C983        C  0.24565938  0.84574934  0.22674051     0.36500
C984        C  0.12985349  0.77769765  0.11566846     0.39800
N985        N  0.20197916  0.87688263  0.38283568    -0.38300
N986        N  0.18171279  0.88262794  0.26207740    -0.39900
N987        N  0.17357806  0.71093230  0.34502579    -0.37600
N988        N  0.16851078  0.72436599  0.22325163    -0.40000
N989        N  0.09073867  0.75849149  0.21794084    -0.39800
N990        N  0.10663322  0.76285228  0.09317448    -0.37400
N991        N  0.28543469  0.86673488  0.12809333    -0.38500
N992        N  0.26915848  0.85875393  0.24916352    -0.40100
C993        C  0.56243191  0.37383270  0.49116673    -0.05100
C994        C  0.59308991  0.37196015  0.49305138     0.09100
C995        C  0.59222775  0.34167097  0.47917605    -0.02400
C996        C  0.56028254  0.31227299  0.46783056    -0.00700
C997        C  0.52890327  0.31306668  0.47001249    -0.04300
C998        C  0.53088635  0.34500086  0.47806439     0.02700
C999        C  0.62706931  0.40386941  0.50292612     0.09500
C1000       C  0.62435083  0.34103169  0.47608334     0.35400
C1001       C  0.50082280  0.34863214  0.47073630     0.38900
C1002       C  0.64298532  0.40953084  0.54254561    -0.04700
C1003       C  0.67366502  0.44121876  0.55177691     0.02500
C1004       C  0.68821360  0.46759467  0.52166892    -0.04300
C1005       C  0.67243506  0.46115539  0.48155541    -0.00500
C1006       C  0.64254086  0.42945095  0.47227434    -0.03100
C1007       C  0.62765798  0.38307786  0.57408300     0.36200
C1008       C  0.68684552  0.48670408  0.44873930     0.39800
C1009       C  0.68935867  0.44717305  0.59271187     0.38900
C1010       C  0.62739129  0.42307067  0.43080051     0.35900
C1011       C  0.56343316  0.40562927  0.50258878     0.36500
C1012       C  0.55979113  0.28125396  0.45416240     0.39800
N1013       N  0.70183246  0.45195525  0.62544399    -0.38300
N1014       N  0.61600737  0.36239056  0.59988059    -0.39900
N1015       N  0.69774173  0.50655233  0.42198376    -0.37600
N1016       N  0.61530986  0.41797656  0.39781595    -0.40000
N1017       N  0.65011035  0.34075997  0.47335397    -0.39800
N1018       N  0.55863534  0.25619540  0.44287271    -0.37400
N1019       N  0.47711804  0.35178822  0.46391389    -0.38500
N1020       N  0.56435289  0.43103392  0.51170844    -0.40100
C1021       C  0.56351352  0.18586900  0.50786401    -0.05100
C1022       C  0.59444270  0.21778757  0.51305598     0.09100
C1023       C  0.59316885  0.24509255  0.53329075    -0.02400
C1024       C  0.56078045  0.24195730  0.54357361    -0.00700
C1025       C  0.52936660  0.21125921  0.53361507    -0.04300
C1026       C  0.53130186  0.18222890  0.51941762     0.02700
C1027       C  0.62844938  0.22029237  0.50280166     0.09500
C1028       C  0.62524617  0.27628594  0.54376986     0.35400
C1029       C  0.50018824  0.14834851  0.51668724     0.38900
C1030       C  0.64510469  0.23276426  0.46387615    -0.04700
C1031       C  0.67437637  0.22995926  0.45261058     0.02500
C1032       C  0.68640201  0.21362234  0.47966618    -0.04300
C1033       C  0.67046973  0.20285891  0.51977601    -0.00500
C1034       C  0.64209329  0.20665578  0.53117373    -0.03100
C1035       C  0.63198607  0.24805456  0.43504498     0.36200
C1036       C  0.68322968  0.18843722  0.55058212     0.39800
C1037       C  0.69148597  0.24314954  0.41281332     0.38900
C1038       C  0.62634702  0.19600257  0.57228434     0.35900
C1039       C  0.56492466  0.15663394  0.49057755     0.36500
C1040       C  0.55999337  0.27053513  0.56361309     0.39800
N1041       N  0.70524056  0.25387787  0.38114119    -0.38300
N1042       N  0.62227315  0.26049761  0.41128487    -0.39900
N1043       N  0.69269337  0.17678490  0.57576036    -0.37600
N1044       N  0.61380586  0.18763312  0.60500080    -0.40000
N1045       N  0.65083573  0.30109884  0.55250949    -0.39800
N1046       N  0.55879963  0.29299659  0.57985066    -0.37400
N1047       N  0.47542932  0.12137198  0.51448064    -0.38500
N1048       N  0.56616939  0.13337317  0.47688746    -0.40100
C1049       C  0.29488638  0.96273633  0.49463216    -0.05100
C1050       C  0.33143528  0.97900546  0.49477755     0.09100
C1051       C  0.34738886  0.95892180  0.49896562    -0.02400
C1052       C  0.32682568  0.92251483  0.50158256    -0.00700
C1053       C  0.29003587  0.90593457  0.49965724    -0.04300
C1054       C  0.27428972  0.92657091  0.49700120     0.02700
C1055       C  0.35252121  0.01753223  0.49122187     0.09500
C1056       C  0.38500308  0.97585047  0.50039417     0.35400
C1057       C  0.23668208  0.91089819  0.49772874     0.38900
C1058       C  0.36291391  0.03811579  0.52755784    -0.04700
C1059       C  0.37619036  0.07394549  0.52486583     0.02500
C1060       C  0.37982444  0.08975921  0.48560331    -0.04300
C1061       C  0.37211204  0.06940660  0.44894186    -0.00500
C1062       C  0.35799133  0.03336128  0.45185180    -0.03100
C1063       C  0.35877866  0.02212648  0.56794262     0.36200
C1064       C  0.37718539  0.08504778  0.40820529     0.39800
C1065       C  0.38589861  0.09442416  0.56282689     0.38900
C1066       C  0.34767230  0.01218481  0.41441374     0.35900
C1067       C  0.27841565  0.98349344  0.49243152     0.36500
C1068       C  0.34371728  0.90230167  0.50519500     0.39800
N1069       N  0.39332992  0.11055706  0.59327241    -0.38300
N1070       N  0.35562119  0.00938605  0.60012571    -0.39900
N1071       N  0.38142679  0.09731612  0.37552636    -0.37600
N1072       N  0.33924728  0.99516205  0.38463229    -0.40000
N1073       N  0.41503767  0.98946366  0.50164194    -0.39800
N1074       N  0.35729314  0.88626575  0.50830607    -0.37400
N1075       N  0.20672566  0.89846616  0.49809489    -0.38500
N1076       N  0.26541076  0.00014040  0.49079403    -0.40100
C1077       C  0.31574533  0.35455631  0.54415697    -0.05100
C1078       C  0.32526607  0.34097013  0.51009656     0.09100
C1079       C  0.31717913  0.34590384  0.46909387    -0.02400
C1080       C  0.29744190  0.36205777  0.46237374    -0.00700
C1081       C  0.28590647  0.37360493  0.49669584    -0.04300
C1082       C  0.29664365  0.37128348  0.53743580     0.02700
C1083       C  0.34060342  0.31847229  0.51752884     0.09500
C1084       C  0.32798969  0.33295998  0.43394708     0.35400
C1085       C  0.28812487  0.38630432  0.57256792     0.38900
C1086       C  0.31918267  0.28240994  0.51415743    -0.04700
C1087       C  0.33327004  0.26079713  0.51908291     0.02500
C1088       C  0.36930444  0.27501945  0.52744982    -0.04300
C1089       C  0.39014914  0.31116014  0.53398149    -0.00500
C1090       C  0.37591823  0.33274669  0.52833621    -0.03100
C1091       C  0.28238089  0.26747492  0.50537192     0.36200
C1092       C  0.42627086  0.32650083  0.54621433     0.39800
C1093       C  0.31004556  0.22372133  0.51639070     0.38900
C1094       C  0.39775463  0.36981160  0.53289245     0.35900
C1095       C  0.32426111  0.34991930  0.58630020     0.36500
C1096       C  0.28738790  0.36495621  0.42037047     0.39800
N1097       N  0.29149607  0.19419788  0.51421291    -0.38300
N1098       N  0.25306833  0.25557409  0.49828040    -0.39900
N1099       N  0.45497177  0.33882539  0.55661647    -0.37600
N1100       N  0.41512813  0.39938696  0.53657566    -0.40000
N1101       N  0.33659167  0.32246482  0.40605730    -0.39800
N1102       N  0.27938929  0.36723391  0.38680668    -0.37400
N1103       N  0.28160603  0.39858356  0.60048483    -0.38500
N1104       N  0.33106239  0.34614141  0.61988352    -0.40100
C1105       C  0.35273420  0.16476311  0.80559558    -0.05100
C1106       C  0.37208835  0.19270484  0.77855555     0.09100
C1107       C  0.39292903  0.22612503  0.79531692    -0.02400
C1108       C  0.39649065  0.23118196  0.83892046    -0.00700
C1109       C  0.37917866  0.20278146  0.86623931    -0.04300
C1110       C  0.35618922  0.16972151  0.84930339     0.02700
C1111       C  0.37337594  0.18679000  0.73262352     0.09500
C1112       C  0.41195926  0.25511839  0.76749124     0.35400
C1113       C  0.33814471  0.14015251  0.87641017     0.38900
C1114       C  0.35265369  0.19258453  0.70464655    -0.04700
C1115       C  0.35762046  0.19181966  0.66111084     0.02500
C1116       C  0.38380167  0.18568592  0.64516836    -0.04300
C1117       C  0.40335962  0.17818587  0.67357918    -0.00500
C1118       C  0.39775043  0.17829077  0.71696254    -0.03100
C1119       C  0.32724828  0.20080396  0.72089357     0.36200
C1120       C  0.43027305  0.17160764  0.65857916     0.39800
C1121       C  0.33752128  0.20017858  0.63317767     0.38900
C1122       C  0.41805562  0.17085824  0.74581352     0.35900
C1123       C  0.33052850  0.13060054  0.78825329     0.36500
C1124       C  0.41891990  0.26557995  0.85563821     0.39800
N1125       N  0.32141066  0.20696053  0.61123288    -0.38300
N1126       N  0.30704978  0.20747441  0.73395427    -0.39900
N1127       N  0.45207619  0.16669537  0.64695154    -0.37600
N1128       N  0.43407206  0.16481061  0.76887329    -0.40000
N1129       N  0.42706842  0.27816347  0.74517493    -0.39800
N1130       N  0.43693285  0.29297535  0.86896901    -0.37400
N1131       N  0.32360979  0.11625127  0.89757968    -0.38500
N1132       N  0.31286784  0.10335054  0.77435110    -0.40100
C1133       C  0.39060842  0.21816819  0.29702103    -0.05100
C1134       C  0.36960808  0.18547297  0.27852354     0.09100
C1135       C  0.35005369  0.15648797  0.30410741    -0.02400
C1136       C  0.35309462  0.15987263  0.34804632    -0.00700
C1137       C  0.37709145  0.19197991  0.36637727    -0.04300
C1138       C  0.39417748  0.22146939  0.34070654     0.02700
C1139       C  0.36908185  0.18219557  0.23194472     0.09500
C1140       C  0.32802119  0.12299632  0.28508628     0.35400
C1141       C  0.41554657  0.25535730  0.35931424     0.38900
C1142       C  0.39380653  0.17636438  0.21156751    -0.04700
C1143       C  0.39881035  0.18105159  0.16806097     0.02500
C1144       C  0.37917132  0.19182260  0.14460062    -0.04300
C1145       C  0.35215605  0.19441083  0.16463074    -0.00500
C1146       C  0.34723314  0.18966101  0.20818942    -0.03100
C1147       C  0.41518455  0.16703518  0.23575776     0.36200
C1148       C  0.33097251  0.20441047  0.14126802     0.39800
C1149       C  0.42470281  0.17541021  0.14758177     0.38900
C1150       C  0.32090783  0.19426415  0.22914025     0.35900
C1151       C  0.40969902  0.24828598  0.27082233     0.36500
C1152       C  0.33220570  0.13013370  0.37409213     0.39800
N1153       N  0.44539040  0.17100694  0.13119836    -0.38300
N1154       N  0.43219640  0.15955105  0.25503902    -0.39900
N1155       N  0.31392631  0.21238393  0.12291829    -0.37600
N1156       N  0.29997475  0.19794373  0.24607649    -0.40000
N1157       N  0.31064041  0.09621631  0.26987176    -0.39800
N1158       N  0.31516959  0.10649189  0.39488875    -0.37400
N1159       N  0.43246649  0.28237726  0.37417676    -0.38500
N1160       N  0.42490905  0.27218161  0.24976258    -0.40100
C1161       C  0.56694762  0.36502535  0.04202910    -0.05100
C1162       C  0.59279915  0.38052082  0.01116479     0.09100
C1163       C  0.58595026  0.36646954  0.97031225    -0.02400
C1164       C  0.55287698  0.33779559  0.96013633    -0.00700
C1165       C  0.52615963  0.32351803  0.99050304    -0.04300
C1166       C  0.53364380  0.33759925  0.03174463     0.02700
C1167       C  0.62580613  0.41345007  0.02166900     0.09500
C1168       C  0.61282686  0.38176332  0.93870071     0.35400
C1169       C  0.50742975  0.32421413  0.06449064     0.38900
C1170       C  0.65675541  0.41350335  0.03083507    -0.04700
C1171       C  0.68723307  0.44460365  0.04214461     0.02500
C1172       C  0.68702969  0.47606201  0.04403077    -0.04300
C1173       C  0.65477367  0.47477584  0.04011304    -0.00500
C1174       C  0.62478233  0.44410670  0.02736590    -0.03100
C1175       C  0.65711489  0.38149112  0.02837681     0.36200
C1176       C  0.65206661  0.50474825  0.05086793     0.39800
C1177       C  0.71860725  0.44413240  0.05209644     0.38900
C1178       C  0.59279906  0.44416853  0.01945139     0.35900
C1179       C  0.57480690  0.37753812  0.08482097     0.36500
C1180       C  0.54582948  0.32416532  0.91794660     0.39800
N1181       N  0.74399767  0.44460305  0.06081232    -0.38300
N1182       N  0.65708097  0.35578936  0.02624211    -0.39900
N1183       N  0.64973934  0.52840925  0.06022285    -0.37600
N1184       N  0.56724119  0.44409293  0.01297077    -0.40000
N1185       N  0.63427290  0.39380822  0.91336668    -0.39800
N1186       N  0.54012180  0.31339708  0.88420378    -0.37400
N1187       N  0.48690976  0.31418958  0.09101627    -0.38500
N1188       N  0.58118370  0.38742983  0.11888805    -0.40100
C1189       C  0.56259491  0.22038059  0.96904338    -0.05100
C1190       C  0.59181668  0.23797154  0.99493772     0.09100
C1191       C  0.58948942  0.25465279  0.03148982    -0.02400
C1192       C  0.55740793  0.25186336  0.04332771    -0.00700
C1193       C  0.52746479  0.23264979  0.01840787    -0.04300
C1194       C  0.53114216  0.21876839  0.97967985     0.02700
C1195       C  0.62315353  0.23455956  0.98634982     0.09500
C1196       C  0.61992829  0.27361930  0.05758226     0.35400
C1197       C  0.50332019  0.20378853  0.94913920     0.38900
C1198       C  0.64527703  0.25083656  0.95180773    -0.04700
C1199       C  0.67274181  0.24461775  0.94209165     0.02500
C1200       C  0.67814358  0.22164381  0.96658230    -0.04300
C1201       C  0.65526798  0.20510568  0.00110436    -0.00500
C1202       C  0.62804971  0.21140199  0.01040788    -0.03100
C1203       C  0.63863698  0.27274459  0.92519605     0.36200
C1204       C  0.65961012  0.18208133  0.02864083     0.39800
C1205       C  0.69468209  0.26121010  0.90611318     0.38900
C1206       C  0.60412460  0.19304957  0.04445878     0.35900
C1207       C  0.56445738  0.20259792  0.93183884     0.36500
C1208       C  0.55521539  0.26809996  0.08159090     0.39800
N1209       N  0.71209891  0.27445945  0.87735421    -0.38300
N1210       N  0.63255607  0.28947467  0.90353799    -0.39900
N1211       N  0.66255937  0.16357864  0.05088261    -0.37600
N1212       N  0.58504885  0.17847172  0.07148583    -0.40000
N1213       N  0.64429883  0.28861476  0.07838938    -0.39800
N1214       N  0.55355479  0.28116830  0.11207335    -0.37400
N1215       N  0.48177502  0.19186160  0.92400206    -0.38500
N1216       N  0.56593380  0.18845879  0.90225700    -0.40100
C1217       C  0.31670551  0.04274046  0.98893792    -0.05100
C1218       C  0.33825525  0.02818870  0.98864727     0.09100
C1219       C  0.37466054  0.04994151  0.98566948    -0.02400
C1220       C  0.38952291  0.08617211  0.98387338    -0.00700
C1221       C  0.36800137  0.10096848  0.98528031    -0.04300
C1222       C  0.33135767  0.07879427  0.98812041     0.02700
C1223       C  0.32211865  0.98994388  0.99374607     0.09500
C1224       C  0.39683906  0.03498239  0.98562813     0.35400
C1225       C  0.30828864  0.09275781  0.99083920     0.38900
C1226       C  0.31768398  0.96862072  0.95899264    -0.04700
C1227       C  0.29860233  0.93239379  0.96307227     0.02500
C1228       C  0.28273969  0.91721623  0.00156520    -0.04300
C1229       C  0.28760638  0.93858998  0.03643969    -0.00500
C1230       C  0.30799645  0.97476130  0.03278881    -0.03100
C1231       C  0.33159874  0.98396941  0.91866912     0.36200
C1232       C  0.26911119  0.92380475  0.07506540     0.39800
C1233       C  0.29502949  0.91063770  0.92751846     0.38900
C1234       C  0.31334363  0.99657810  0.06890317     0.35900
C1235       C  0.27916088  0.02036582  0.99052785     0.36500
C1236       C  0.42706067  0.10806690  0.98368140     0.39800
N1237       N  0.29221051  0.89317626  0.89929215    -0.38300
N1238       N  0.34264019  0.99623214  0.88647745    -0.39900
N1239       N  0.25397928  0.91278909  0.10589989    -0.37600
N1240       N  0.31760751  0.01405840  0.09761926    -0.40000
N1241       N  0.41448527  0.02297721  0.98549990    -0.39800
N1242       N  0.45705539  0.12520946  0.98394600    -0.37400
N1243       N  0.28979608  0.10373918  0.99344574    -0.38500
N1244       N  0.24927396  0.00244214  0.99185272    -0.40100
C1245       C  0.30590737  0.36392159  0.04304128    -0.05100
C1246       C  0.31362492  0.34828703  0.00955347     0.09100
C1247       C  0.30173971  0.34916322  0.96904060    -0.02400
C1248       C  0.28071090  0.36391526  0.96247268    -0.00700
C1249       C  0.27169456  0.37815112  0.99635917    -0.04300
C1250       C  0.28516966  0.37894188  0.03646499     0.02700
C1251       C  0.33096303  0.32767191  0.01763454     0.09500
C1252       C  0.31028946  0.33384509  0.93434070     0.35400
C1253       C  0.27765200  0.39524111  0.07107635     0.38900
C1254       C  0.31046320  0.29150494  0.02031524    -0.04700
C1255       C  0.32627966  0.27139975  0.02521734     0.02500
C1256       C  0.36300205  0.28732090  0.02856547    -0.04300
C1257       C  0.38327883  0.32381532  0.02907873    -0.00500
C1258       C  0.36734717  0.34383451  0.02270325    -0.03100
C1259       C  0.27284849  0.27494643  0.01775204     0.36200
C1260       C  0.42061181  0.34094006  0.03489446     0.39800
C1261       C  0.30438055  0.23415863  0.02707838     0.38900
C1262       C  0.38841888  0.38105472  0.02009100     0.35900
C1263       C  0.31837696  0.36349825  0.08457079     0.36500
C1264       C  0.26660649  0.36253301  0.92138133     0.39800
N1265       N  0.28679088  0.20447255  0.02831357    -0.38300
N1266       N  0.24288732  0.26191241  0.01577384    -0.39900
N1267       N  0.45037573  0.35478463  0.03996295    -0.37600
N1268       N  0.40516336  0.41076514  0.01781205    -0.40000
N1269       N  0.31708875  0.32158296  0.90666059    -0.39800
N1270       N  0.25514197  0.36129181  0.88869783    -0.37400
N1271       N  0.27168278  0.40830802  0.09860366    -0.38500
N1272       N  0.32838512  0.36316185  0.11767679    -0.40100
loop_ 
_geom_bond_atom_site_label_1 
_geom_bond_atom_site_label_2 
_geom_bond_distance 
_geom_bond_site_symmetry_2 
_ccdc_geom_bond_type 
Fe1          O17   2.042       .  S
Fe1           O7   2.125   1_554  S
Fe1          O14   2.116       .  S
Fe1           O6   2.038       .  S
Fe1          O12   1.912       .  S
Fe2           O5   2.032   1_554  S
Fe2           O9   2.118       .  S
Fe2          O13   2.040       .  S
Fe2          O18   2.159       .  S
Fe2          O12   1.933       .  S
Fe3          O21   2.160       .  S
Fe3           O8   2.026   1_556  S
Fe3          O15   2.034       .  S
Fe3           O4   2.115       .  S
Fe3          O12   1.923   1_556  S
O4           C11   1.277       .  A
O5           C19   1.259       .  A
O6           C11   1.263   1_554  A
O7           C10   1.285       .  A
O8           C20   1.253       .  A
O9           C22   1.279       .  A
C10          O15   1.270       .  A
C10        C1109   1.492       .  S
C11        C1221   1.498       .  S
O13          C16   1.271       .  A
O14          C16   1.283       .  A
C16        C1144   1.493       .  S
O17          C22   1.266       .  A
O18          C20   1.280       .  A
C19          O21   1.284       .  A
C19        C1165   1.502       .  S
C20        C1193   1.505       .  S
C22        C1256   1.499       .  S
Fe23         O39   2.050       .  S
Fe23         O29   2.114       .  S
Fe23         O36   2.115       .  S
Fe23         O28   2.041       .  S
Fe23         O34   1.929       .  S
Fe24         O27   2.016       .  S
Fe24         O31   2.106       .  S
Fe24         O35   2.034       .  S
Fe24         O40   2.112       .  S
Fe24         O34   1.931       .  S
Fe25         O43   2.120       .  S
Fe25         O30   2.036       .  S
Fe25         O37   2.038       .  S
Fe25         O26   2.111       .  S
Fe25         O34   1.935       .  S
O26          C33   1.279       .  A
O27          C41   1.262       .  A
O28          C33   1.268       .  A
O29          C32   1.280       .  A
O30          C42   1.263       .  A
O31          C44   1.277       .  A
C32          O37   1.265       .  A
C32        C1116   1.497       .  S
C33        C1088   1.502       .  S
O35          C38   1.267       .  A
O36          C38   1.279       .  A
C38        C1137   1.492       .  S
O39          C44   1.269       .  A
O40          C42   1.277       .  A
C41          O43   1.280       .  A
C41        C1025   1.500       .  S
C42         C997   1.499       .  S
C44        C1060   1.496       .  S
Fe45         O61   2.049       .  S
Fe45         O51   2.130       .  S
Fe45         O58   2.132   1_556  S
Fe45         O50   2.042       .  S
Fe45         O56   1.917       .  S
Fe46         O49   2.029   1_554  S
Fe46         O53   2.107       .  S
Fe46         O57   2.026       .  S
Fe46         O62   2.158       .  S
Fe46         O56   1.926   1_554  S
Fe47         O65   2.175       .  S
Fe47         O52   2.016       .  S
Fe47         O59   2.042       .  S
Fe47         O48   2.108       .  S
Fe47         O56   1.924       .  S
O48          C55   1.277       .  A
O49          C63   1.253       .  A
O50          C55   1.266       .  A
O51          C54   1.285       .  A
O52          C64   1.252   1_556  A
O53          C66   1.275       .  A
C54          O59   1.273       .  A
C54         C941   1.491       .  S
C55         C920   1.484       .  S
O57          C60   1.268       .  A
O58          C60   1.286       .  A
C60         C969   1.485       .  S
O61          C66   1.267   1_556  A
O62          C64   1.281       .  A
C63          O65   1.282       .  A
C63         C864   1.518       .  S
C64         C885   1.491       .  S
C66        C1228   1.486       .  S
Fe67         O83   2.043       .  S
Fe67         O73   2.116       .  S
Fe67         O80   2.113       .  S
Fe67         O72   2.044       .  S
Fe67         O78   1.928       .  S
Fe68         O71   2.047       .  S
Fe68         O75   2.120       .  S
Fe68         O79   2.044       .  S
Fe68         O84   2.147       .  S
Fe68         O78   1.935       .  S
Fe69         O87   2.117       .  S
Fe69         O74   2.030       .  S
Fe69         O81   2.041       .  S
Fe69         O70   2.117       .  S
Fe69         O78   1.925       .  S
O70          C77   1.278       .  A
O71          C85   1.262       .  A
O72          C77   1.268       .  A
O73          C76   1.279       .  A
O74          C86   1.266       .  A
O75          C88   1.281       .  A
C76          O81   1.268       .  A
C76         C976   1.496       .  S
C77         C836   1.508       .  S
O79          C82   1.268       .  A
O80          C82   1.278       .  A
C82         C948   1.491       .  S
O83          C88   1.269       .  A
O84          C86   1.285       .  A
C85          O87   1.279       .  A
C85         C773   1.493       .  S
C86         C801   1.515       .  S
C88        C1053   1.500       .  S
Fe89        O105   2.049   1_554  S
Fe89         O95   2.119   1_554  S
Fe89        O102   2.120       .  S
Fe89         O94   2.043       .  S
Fe89        O100   1.928       .  S
Fe90         O93   2.025   1_554  S
Fe90         O97   2.101       .  S
Fe90        O101   2.033       .  S
Fe90        O106   2.120       .  S
Fe90        O100   1.927       .  S
Fe91        O109   2.121       .  S
Fe91         O96   2.034   1_556  S
Fe91        O103   2.032       .  S
Fe91         O92   2.107       .  S
Fe91        O100   1.930   1_556  S
O92          C99   1.278       .  A
O93         C107   1.260       .  A
O94          C99   1.267   1_554  A
O95          C98   1.280       .  A
O96         C108   1.264       .  A
O97         C110   1.274       .  A
C98         O103   1.266       .  A
C98         C724   1.486       .  S
C99         C689   1.501       .  S
O101        C104   1.268       .  A
O102        C104   1.281       .  A
C104        C752   1.485       .  S
O105        C110   1.267   1_556  A
O106        C108   1.278       .  A
C107        O109   1.280       .  A
C107        C668   1.507       .  S
C108       C1172   1.503       .  S
C110        C913   1.480       .  S
Fe111       O127   2.044       .  S
Fe111       O117   2.122       .  S
Fe111       O124   2.123       .  S
Fe111       O116   2.050       .  S
Fe111       O122   1.917       .  S
Fe112       O115   2.031       .  S
Fe112       O119   2.108       .  S
Fe112       O123   2.038       .  S
Fe112       O128   2.152       .  S
Fe112       O122   1.928       .  S
Fe113       O131   2.160       .  S
Fe113       O118   2.028       .  S
Fe113       O125   2.039       .  S
Fe113       O114   2.110       .  S
Fe113       O122   1.924       .  S
O114        C121   1.277       .  A
O115        C129   1.255       .  A
O116        C121   1.267       .  A
O117        C120   1.283       .  A
O118        C130   1.256       .  A
O119        C132   1.276       .  A
C120        O125   1.272       .  A
C120        C745   1.490       .  S
C121        C633   1.487       .  S
O123        C126   1.271       .  A
O124        C126   1.284       .  A
C126        C717   1.493       .  S
O127        C132   1.267       .  A
O128        C130   1.282       .  A
C129        O131   1.281       .  A
C129        C605   1.514       .  S
C130       C1004   1.497       .  S
C132        C829   1.486       .  S
Fe133       O149   2.038       .  S
Fe133       O139   2.117   1_554  S
Fe133       O146   2.113       .  S
Fe133       O138   2.040       .  S
Fe133       O144   1.922       .  S
Fe134       O137   2.022       .  S
Fe134       O141   2.109       .  S
Fe134       O145   2.040       .  S
Fe134       O150   2.163       .  S
Fe134       O144   1.919       .  S
Fe135       O153   2.138       .  S
Fe135       O140   2.024   1_556  S
Fe135       O147   2.045       .  S
Fe135       O136   2.111       .  S
Fe135       O144   1.940   1_556  S
O136        C143   1.277       .  A
O137        C151   1.249   1_554  A
O138        C143   1.266   1_554  A
O139        C142   1.282       .  A
O140        C152   1.266       .  A
O141        C154   1.278       .  A
C142        O147   1.272       .  A
C142        C549   1.495       .  S
C143        C528   1.497       .  S
O145        C148   1.270       .  A
O146        C148   1.280       .  A
C148        C584   1.489       .  S
O149        C154   1.266       .  A
O150        C152   1.288       .  A
C151        O153   1.276       .  A
C151        C500   1.499       .  S
C152        C857   1.509       .  S
C154        C696   1.501       .  S
Fe155       O171   2.053       .  S
Fe155       O161   2.115       .  S
Fe155       O168   2.120       .  S
Fe155       O160   2.043       .  S
Fe155       O166   1.920       .  S
Fe156       O159   2.026       .  S
Fe156       O163   2.100       .  S
Fe156       O167   2.031       .  S
Fe156       O172   2.154       .  S
Fe156       O166   1.921       .  S
Fe157       O175   2.153       .  S
Fe157       O162   2.028       .  S
Fe157       O169   2.048       .  S
Fe157       O158   2.104       .  S
Fe157       O166   1.940       .  S
O158        C165   1.276       .  A
O159        C173   1.251       .  A
O160        C165   1.267       .  A
O161        C164   1.283       .  A
O162        C174   1.260       .  A
O163        C176   1.275       .  A
C164        O169   1.274       .  A
C164        C577   1.497       .  S
C165        C465   1.494       .  S
O167        C170   1.270       .  A
O168        C170   1.283       .  A
C170        C556   1.494       .  S
O171        C176   1.267       .  A
O172        C174   1.286       .  A
C173        O175   1.280       .  A
C173        C444   1.501       .  S
C174        C780   1.493       .  S
C176        C640   1.497       .  S
Fe177       O193   2.050       .  S
Fe177       O183   2.122       .  S
Fe177       O190   2.119   1_556  S
Fe177       O182   2.055   1_556  S
Fe177       O188   1.920       .  S
Fe178       O181   2.034   1_554  S
Fe178       O185   2.095       .  S
Fe178       O189   2.049       .  S
Fe178       O194   2.144       .  S
Fe178       O188   1.936   1_554  S
Fe179       O197   2.148       .  S
Fe179       O184   2.026   1_556  S
Fe179       O191   2.041       .  S
Fe179       O180   2.100       .  S
Fe179       O188   1.934       .  S
O180        C187   1.276       .  A
O181        C195   1.256       .  A
O182        C187   1.268   1_554  A
O183        C186   1.283       .  A
O184        C196   1.255       .  A
O185        C198   1.272       .  A
C186        O191   1.271       .  A
C186        C381   1.503       .  S
C187        C353   1.495       .  S
O189        C192   1.275       .  A
O190        C192   1.284       .  A
C192        C409   1.498       .  S
O193        C198   1.267   1_556  A
O194        C196   1.279       .  A
C195        O197   1.279       .  A
C195       C1200   1.508       .  S
C196        C661   1.497       .  S
C198        C521   1.489   1_554  S
Fe199       O215   2.050       .  S
Fe199       O205   2.120       .  S
Fe199       O212   2.128       .  S
Fe199       O204   2.046       .  S
Fe199       O210   1.922       .  S
Fe200       O203   2.026       .  S
Fe200       O207   2.103       .  S
Fe200       O211   2.043       .  S
Fe200       O216   2.157       .  S
Fe200       O210   1.930       .  S
Fe201       O219   2.146       .  S
Fe201       O206   2.030       .  S
Fe201       O213   2.039       .  S
Fe201       O202   2.096       .  S
Fe201       O210   1.931       .  S
O202        C209   1.275       .  A
O203        C217   1.255       .  A
O204        C209   1.268       .  A
O205        C208   1.282       .  A
O206        C218   1.255       .  A
O207        C220   1.275       .  A
C208        O213   1.271       .  A
C208        C416   1.488       .  S
C209        C325   1.481       .  S
O211        C214   1.273       .  A
O212        C214   1.285       .  A
C214        C388   1.488       .  S
O215        C220   1.266       .  A
O216        C218   1.279       .  A
C217        O219   1.280       .  A
C217       C1032   1.497       .  S
C218        C612   1.511       .  S
C220        C472   1.494       .  S
Fe221       O237   2.045   1_554  S
Fe221       O227   2.121   1_554  S
Fe221       O234   2.118       .  S
Fe221       O226   2.046       .  S
Fe221       O232   1.935       .  S
Fe222       O225   2.024       .  S
Fe222       O229   2.115       .  S
Fe222       O233   2.038       .  S
Fe222       O238   2.125       .  S
Fe222       O232   1.930       .  S
Fe223       O241   2.107       .  S
Fe223       O228   2.023   1_556  S
Fe223       O235   2.037       .  S
Fe223       O224   2.106       .  S
Fe223       O232   1.924   1_556  S
O224        C231   1.278       .  A
O225        C239   1.263   1_554  A
O226        C231   1.269   1_554  A
O227        C230   1.279       .  A
O228        C240   1.261       .  A
O229        C242   1.281       .  A
C230        O235   1.264       .  A
C230        C269   1.495       .  S
C231       C1249   1.486       .  S
O233        C236   1.265       .  A
O234        C236   1.278       .  A
C236        C297   1.492       .  S
O237        C242   1.270   1_556  A
O238        C240   1.280       .  A
C239        O241   1.278       .  A
C239        C892   1.494       .  S
C240        C493   1.509       .  S
C242        C360   1.489       .  S
Fe243       O259   2.045       .  S
Fe243       O249   2.132       .  S
Fe243       O256   2.138       .  S
Fe243       O248   2.042       .  S
Fe243       O254   1.917       .  S
Fe244       O247   2.011       .  S
Fe244       O251   2.103       .  S
Fe244       O255   2.029       .  S
Fe244       O260   2.143       .  S
Fe244       O254   1.911       .  S
Fe245       O263   2.160       .  S
Fe245       O250   2.009       .  S
Fe245       O257   2.036       .  S
Fe245       O246   2.118       .  S
Fe245       O254   1.922       .  S
O246        C253   1.281       .  A
O247        C261   1.251       .  A
O248        C253   1.269       .  A
O249        C252   1.284       .  A
O250        C262   1.256       .  A
O251        C264   1.276       .  A
C252        O257   1.268       .  A
C252        C304   1.496       .  S
C253       C1081   1.490       .  S
O255        C258   1.267       .  A
O256        C258   1.285       .  A
C258        C276   1.490       .  S
O259        C264   1.267       .  A
O260        C262   1.282       .  A
C261        O263   1.284       .  A
C261        C808   1.518       .  S
C262        C437   1.501       .  S
C264        C332   1.479       .  S
C265        C266   1.410       .  A
C265        C270   1.409       .  A
C265        C283   1.453       .  S
C266        C271   1.503       .  S
C266        C267   1.414       .  A
C267        C268   1.418       .  A
C267        C272   1.449       .  S
C268        C269   1.415       .  A
C268        C284   1.450       .  S
C269        C270   1.419       .  A
C270        C273   1.453       .  S
C271        C274   1.415       .  A
C271        C278   1.408       .  A
C272        N289   1.157       .  T
C273        N291   1.158       .  T
C274        C275   1.418       .  A
C274        C279   1.449       .  S
C275        C276   1.412       .  A
C275        C281   1.449       .  S
C276        C277   1.419       .  A
C277        C278   1.408       .  A
C277        C280   1.453       .  S
C278        C282   1.452       .  S
C279        N286   1.157       .  T
C280        N287   1.157       .  T
C281        N285   1.157       .  T
C282        N288   1.157       .  T
C283        N292   1.157       .  T
C284        N290   1.157       .  T
C293        C294   1.413       .  A
C293        C298   1.418       .  A
C293        C311   1.449       .  S
C294        C299   1.502       .  S
C294        C295   1.410       .  A
C295        C296   1.408       .  A
C295        C300   1.452       .  S
C296        C297   1.418       .  A
C296        C312   1.453       .  S
C297        C298   1.415       .  A
C298        C301   1.450       .  S
C299        C302   1.410       .  A
C299        C306   1.412       .  A
C300        N317   1.157       .  T
C301        N319   1.157       .  T
C302        C303   1.409       .  A
C302        C307   1.453       .  S
C303        C304   1.420       .  A
C303        C309   1.453       .  S
C304        C305   1.415       .  A
C305        C306   1.419       .  A
C305        C308   1.449       .  S
C306        C310   1.449       .  S
C307        N314   1.157       .  T
C308        N315   1.157       .  T
C309        N313   1.158       .  T
C310        N316   1.157       .  T
C311        N320   1.157       .  T
C312        N318   1.158       .  T
C321        C322   1.411       .  A
C321        C326   1.409       .  A
C321        C339   1.451       .  S
C322        C327   1.495   1_655  S
C322        C323   1.411       .  A
C323        C324   1.413       .  A
C323        C328   1.450       .  S
C324        C325   1.413       .  A
C324        C340   1.450       .  S
C325        C326   1.412       .  A
C326        C329   1.451       .  S
C327        C330   1.410       .  A
C327        C334   1.412       .  A
C328        N345   1.157       .  T
C329        N347   1.157       .  T
C330        C331   1.410       .  A
C330        C335   1.450       .  S
C331        C332   1.413       .  A
C331        C337   1.452       .  S
C332        C333   1.411       .  A
C333        C334   1.411       .  A
C333        C336   1.450       .  S
C334        C338   1.450       .  S
C335        N342   1.157       .  T
C336        N343   1.157       .  T
C337        N341   1.157       .  T
C338        N344   1.157   1_455  T
C339        N348   1.157   1_655  T
C340        N346   1.157       .  T
C349        C350   1.410   1_554  A
C349        C354   1.416   1_554  A
C349        C367   1.450       .  S
C350        C355   1.500   1_656  S
C350        C351   1.410       .  A
C351        C352   1.410       .  A
C351        C356   1.452       .  S
C352        C353   1.417       .  A
C352        C368   1.450       .  S
C353        C354   1.418       .  A
C354        C357   1.450   1_556  S
C355        C358   1.412       .  A
C355        C362   1.410   1_554  A
C356        N373   1.157   1_655  T
C357        N375   1.157       .  T
C358        C359   1.414       .  A
C358        C363   1.450       .  S
C359        C360   1.413       .  A
C359        C365   1.449       .  S
C360        C361   1.416   1_554  A
C361        C362   1.412       .  A
C361        C364   1.452       .  S
C362        C366   1.450       .  S
C363        N370   1.157   1_455  T
C364        N371   1.157       .  T
C365        N369   1.157       .  T
C366        N372   1.157       .  T
C367        N376   1.157       .  T
C368        N374   1.157       .  T
C377        C378   1.410       .  A
C377        C382   1.411       .  A
C377        C395   1.452       .  S
C378        C383   1.503       .  S
C378        C379   1.410       .  A
C379        C380   1.417       .  A
C379        C384   1.450       .  S
C380        C381   1.420       .  A
C380        C396   1.448       .  S
C381        C382   1.421       .  A
C382        C385   1.452       .  S
C383        C386   1.412       .  A
C383        C390   1.412       .  A
C384        N401   1.157       .  T
C385        N403   1.158       .  T
C386        C387   1.412       .  A
C386        C391   1.450       .  S
C387        C388   1.413       .  A
C387        C393   1.451       .  S
C388        C389   1.415       .  A
C389        C390   1.415       .  A
C389        C392   1.450       .  S
C390        C394   1.450       .  S
C391        N398   1.157       .  T
C392        N399   1.157       .  T
C393        N397   1.157       .  T
C394        N400   1.157       .  T
C395        N404   1.157       .  T
C396        N402   1.156       .  T
C405        C406   1.410       .  A
C405        C410   1.411       .  A
C405        C423   1.452       .  S
C406        C411   1.503       .  S
C406        C407   1.412       .  A
C407        C408   1.416       .  A
C407        C412   1.450       .  S
C408        C409   1.417       .  A
C408        C424   1.450       .  S
C409        C410   1.420       .  A
C410        C413   1.452       .  S
C411        C414   1.415       .  A
C411        C418   1.411       .  A
C412        N429   1.157       .  T
C413        N431   1.157       .  T
C414        C415   1.418       .  A
C414        C419   1.449       .  S
C415        C416   1.412       .  A
C415        C421   1.450       .  S
C416        C417   1.415       .  A
C417        C418   1.408       .  A
C417        C420   1.452       .  S
C418        C422   1.452       .  S
C419        N426   1.157       .  T
C420        N427   1.157       .  T
C421        N425   1.157       .  T
C422        N428   1.157       .  T
C423        N432   1.158       .  T
C424        N430   1.158       .  T
C433        C434   1.410       .  A
C433        C438   1.408       .  A
C433        C451   1.453       .  S
C434        C439   1.505       .  S
C434        C435   1.414       .  A
C435        C436   1.417       .  A
C435        C440   1.445       .  S
C436        C437   1.416       .  A
C436        C452   1.450       .  S
C437        C438   1.423       .  A
C438        C441   1.453       .  S
C439        C442   1.416       .  A
C439        C446   1.407       .  A
C440        N457   1.155       .  T
C441        N459   1.157       .  T
C442        C443   1.419       .  A
C442        C447   1.446       .  S
C443        C444   1.413       .  A
C443        C449   1.449       .  S
C444        C445   1.428       .  A
C445        C446   1.408       .  A
C445        C448   1.454       .  S
C446        C450   1.455       .  S
C447        N454   1.156       .  T
C448        N455   1.157       .  T
C449        N453   1.157       .  T
C450        N456   1.157       .  T
C451        N460   1.157       .  T
C452        N458   1.157       .  T
C461        C462   1.411       .  A
C461        C466   1.414       .  A
C461        C479   1.450       .  S
C462        C467   1.498   1_565  S
C462        C463   1.408       .  A
C463        C464   1.410       .  A
C463        C468   1.451       .  S
C464        C465   1.419       .  A
C464        C480   1.451       .  S
C465        C466   1.416       .  A
C466        C469   1.450       .  S
C467        C470   1.409       .  A
C467        C474   1.410       .  A
C468        N485   1.157       .  T
C469        N487   1.157       .  T
C470        C471   1.414       .  A
C470        C475   1.450       .  S
C471        C472   1.418       .  A
C471        C477   1.450       .  S
C472        C473   1.418       .  A
C473        C474   1.410       .  A
C473        C476   1.452       .  S
C474        C478   1.452       .  S
C475        N482   1.157       .  T
C476        N483   1.157       .  T
C477        N481   1.157       .  T
C478        N484   1.157   1_545  T
C479        N488   1.157       .  T
C480        N486   1.157       .  T
C489        C490   1.407       .  A
C489        C494   1.409       .  A
C489        C507   1.452   1_554  S
C490        C495   1.501       .  S
C490        C491   1.411       .  A
C491        C492   1.417       .  A
C491        C496   1.447       .  S
C492        C493   1.421       .  A
C492        C508   1.450       .  S
C493        C494   1.426       .  A
C494        C497   1.453       .  S
C495        C498   1.415   1_554  A
C495        C502   1.405       .  A
C496        N513   1.156       .  T
C497        N515   1.158       .  T
C498        C499   1.416       .  A
C498        C503   1.446       .  S
C499        C500   1.412       .  A
C499        C505   1.450       .  S
C500        C501   1.429   1_556  A
C501        C502   1.409       .  A
C501        C504   1.454       .  S
C502        C506   1.454       .  S
C503        N510   1.157       .  T
C504        N511   1.158       .  T
C505        N509   1.157       .  T
C506        N512   1.157       .  T
C507        N516   1.157       .  T
C508        N514   1.157       .  T
C517        C518   1.408       .  A
C517        C522   1.410       .  A
C517        C535   1.450       .  S
C518        C523   1.496   1_545  S
C518        C519   1.411   1_556  A
C519        C520   1.412       .  A
C519        C524   1.451       .  S
C520        C521   1.415   1_554  A
C520        C536   1.449       .  S
C521        C522   1.416       .  A
C522        C525   1.450       .  S
C523        C526   1.408       .  A
C523        C530   1.409       .  A
C524        N541   1.157   1_545  T
C525        N543   1.157       .  T
C526        C527   1.407       .  A
C526        C531   1.453       .  S
C527        C528   1.421       .  A
C527        C533   1.453       .  S
C528        C529   1.419       .  A
C529        C530   1.415       .  A
C529        C532   1.449       .  S
C530        C534   1.450       .  S
C531        N538   1.157   1_565  T
C532        N539   1.158       .  T
C533        N537   1.157       .  T
C534        N540   1.157       .  T
C535        N544   1.157       .  T
C536        N542   1.157       .  T
C545        C546   1.408       .  A
C545        C550   1.414       .  A
C545        C563   1.450       .  S
C546        C551   1.498       .  S
C546        C547   1.410       .  A
C547        C548   1.410       .  A
C547        C552   1.451       .  S
C548        C549   1.418       .  A
C548        C564   1.452       .  S
C549        C550   1.419       .  A
C550        C553   1.450       .  S
C551        C554   1.409       .  A
C551        C558   1.409       .  A
C552        N569   1.157       .  T
C553        N571   1.157       .  T
C554        C555   1.416       .  A
C554        C559   1.450       .  S
C555        C556   1.418       .  A
C555        C561   1.449       .  S
C556        C557   1.419       .  A
C557        C558   1.408       .  A
C557        C560   1.453       .  S
C558        C562   1.452       .  S
C559        N566   1.157       .  T
C560        N567   1.157       .  T
C561        N565   1.157       .  T
C562        N568   1.157       .  T
C563        N572   1.157       .  T
C564        N570   1.157       .  T
C573        C574   1.410       .  A
C573        C578   1.416       .  A
C573        C591   1.450       .  S
C574        C579   1.501       .  S
C574        C575   1.411       .  A
C575        C576   1.411       .  A
C575        C580   1.452       .  S
C576        C577   1.417       .  A
C576        C592   1.452       .  S
C577        C578   1.419       .  A
C578        C581   1.450       .  S
C579        C582   1.412       .  A
C579        C586   1.411       .  A
C580        N597   1.157       .  T
C581        N599   1.158       .  T
C582        C583   1.415       .  A
C582        C587   1.450       .  S
C583        C584   1.416       .  A
C583        C589   1.450       .  S
C584        C585   1.414       .  A
C585        C586   1.410       .  A
C585        C588   1.452       .  S
C586        C590   1.451       .  S
C587        N594   1.157       .  T
C588        N595   1.157       .  T
C589        N593   1.157       .  T
C590        N596   1.157       .  T
C591        N600   1.157       .  T
C592        N598   1.157       .  T
C601        C602   1.406       .  A
C601        C606   1.409       .  A
C601        C619   1.455       .  S
C602        C607   1.508       .  S
C602        C603   1.415       .  A
C603        C604   1.422       .  A
C603        C608   1.450       .  S
C604        C605   1.420       .  A
C604        C620   1.449       .  S
C605        C606   1.432       .  A
C606        C609   1.453       .  S
C607        C610   1.416       .  A
C607        C614   1.405       .  A
C608        N625   1.157       .  T
C609        N627   1.157       .  T
C610        C611   1.421       .  A
C610        C615   1.449       .  S
C611        C612   1.417       .  A
C611        C617   1.449       .  S
C612        C613   1.430       .  A
C613        C614   1.410       .  A
C613        C616   1.453       .  S
C614        C618   1.453       .  S
C615        N622   1.157       .  T
C616        N623   1.157       .  T
C617        N621   1.157       .  T
C618        N624   1.157       .  T
C619        N628   1.157       .  T
C620        N626   1.158       .  T
C629        C630   1.411       .  A
C629        C634   1.412       .  A
C629        C647   1.450       .  S
C630        C635   1.501       .  S
C630        C631   1.412       .  A
C631        C632   1.413       .  A
C631        C636   1.451       .  S
C632        C633   1.413       .  A
C632        C648   1.449       .  S
C633        C634   1.414       .  A
C634        C637   1.451       .  S
C635        C638   1.410       .  A
C635        C642   1.410       .  A
C636        N653   1.157       .  T
C637        N655   1.157       .  T
C638        C639   1.412       .  A
C638        C643   1.452       .  S
C639        C640   1.419       .  A
C639        C645   1.451       .  S
C640        C641   1.418       .  A
C641        C642   1.414       .  A
C641        C644   1.450       .  S
C642        C646   1.450       .  S
C643        N650   1.157       .  T
C644        N651   1.157       .  T
C645        N649   1.158       .  T
C646        N652   1.157       .  T
C647        N656   1.157       .  T
C648        N654   1.157       .  T
C657        C658   1.404       .  A
C657        C662   1.406       .  A
C657        C675   1.454       .  S
C658        C663   1.498       .  S
C658        C659   1.415   1_556  A
C659        C660   1.417       .  A
C659        C664   1.447       .  S
C660        C661   1.411       .  A
C660        C676   1.450       .  S
C661        C662   1.427   1_554  A
C662        C665   1.452       .  S
C663        C666   1.411       .  A
C663        C670   1.408       .  A
C664        N681   1.157       .  T
C665        N683   1.158       .  T
C666        C667   1.415       .  A
C666        C671   1.446       .  S
C667        C668   1.419       .  A
C667        C673   1.450       .  S
C668        C669   1.427       .  A
C669        C670   1.408       .  A
C669        C672   1.453   1_556  S
C670        C674   1.454   1_556  S
C671        N678   1.156       .  T
C672        N679   1.158       .  T
C673        N677   1.157       .  T
C674        N680   1.157       .  T
C675        N684   1.157       .  T
C676        N682   1.157       .  T
C685        C686   1.408       .  A
C685        C690   1.410       .  A
C685        C703   1.452       .  S
C686        C691   1.498       .  S
C686        C687   1.409   1_554  A
C687        C688   1.414       .  A
C687        C692   1.450       .  S
C688        C689   1.420       .  A
C688        C704   1.450       .  S
C689        C690   1.423   1_556  A
C690        C693   1.453       .  S
C691        C694   1.406   1_554  A
C691        C698   1.410       .  A
C692        N709   1.157       .  T
C693        N711   1.158       .  T
C694        C695   1.408       .  A
C694        C699   1.453       .  S
C695        C696   1.423   1_556  A
C695        C701   1.451       .  S
C696        C697   1.419       .  A
C697        C698   1.416       .  A
C697        C700   1.450       .  S
C698        C702   1.450       .  S
C699        N706   1.157       .  T
C700        N707   1.158       .  T
C701        N705   1.156       .  T
C702        N708   1.157       .  T
C703        N712   1.157       .  T
C704        N710   1.157       .  T
C713        C714   1.415       .  A
C713        C718   1.417       .  A
C713        C731   1.450       .  S
C714        C719   1.504       .  S
C714        C715   1.411       .  A
C715        C716   1.408       .  A
C715        C720   1.452       .  S
C716        C717   1.418       .  A
C716        C732   1.453       .  S
C717        C718   1.414       .  A
C718        C721   1.450       .  S
C719        C722   1.412       .  A
C719        C726   1.416       .  A
C720        N737   1.157       .  T
C721        N739   1.157       .  T
C722        C723   1.409       .  A
C722        C727   1.452       .  S
C723        C724   1.416       .  A
C723        C729   1.453       .  S
C724        C725   1.411       .  A
C725        C726   1.416       .  A
C725        C728   1.450       .  S
C726        C730   1.450       .  S
C727        N734   1.157       .  T
C728        N735   1.157       .  T
C729        N733   1.157       .  T
C730        N736   1.157       .  T
C731        N740   1.157       .  T
C732        N738   1.157       .  T
C741        C742   1.414       .  A
C741        C746   1.416       .  A
C741        C759   1.449       .  S
C742        C747   1.501       .  S
C742        C743   1.410       .  A
C743        C744   1.407       .  A
C743        C748   1.453       .  S
C744        C745   1.417       .  A
C744        C760   1.451       .  S
C745        C746   1.413       .  A
C746        C749   1.449       .  S
C747        C750   1.411       .  A
C747        C754   1.415       .  A
C748        N765   1.157       .  T
C749        N767   1.157       .  T
C750        C751   1.407       .  A
C750        C755   1.452       .  S
C751        C752   1.415       .  A
C751        C757   1.453       .  S
C752        C753   1.412       .  A
C753        C754   1.416       .  A
C753        C756   1.450       .  S
C754        C758   1.449       .  S
C755        N762   1.157       .  T
C756        N763   1.157       .  T
C757        N761   1.157       .  T
C758        N764   1.157       .  T
C759        N768   1.157       .  T
C760        N766   1.157       .  T
C769        C770   1.417       .  A
C769        C774   1.405       .  A
C769        C787   1.444       .  S
C770        C775   1.520       .  S
C770        C771   1.421       .  A
C771        C772   1.419       .  A
C771        C776   1.449       .  S
C772        C773   1.414       .  A
C772        C788   1.448       .  S
C773        C774   1.405       .  A
C774        C777   1.445       .  S
C775        C778   1.420       .  A
C775        C782   1.423       .  A
C776        N793   1.157       .  T
C777        N795   1.156       .  T
C778        C779   1.405       .  A
C778        C783   1.449       .  S
C779        C780   1.398       .  A
C779        C785   1.439       .  S
C780        C781   1.414       .  A
C781        C782   1.418       .  A
C781        C784   1.449       .  S
C782        C786   1.449       .  S
C783        N790   1.157       .  T
C784        N791   1.157       .  T
C785        N789   1.155       .  T
C786        N792   1.157       .  T
C787        N796   1.155       .  T
C788        N794   1.157       .  T
C797        C798   1.412       .  A
C797        C802   1.405       .  A
C797        C815   1.452       .  S
C798        C803   1.512       .  S
C798        C799   1.416       .  A
C799        C800   1.426       .  A
C799        C804   1.447       .  S
C800        C801   1.418       .  A
C800        C816   1.447       .  S
C801        C802   1.418       .  A
C802        C805   1.449       .  S
C803        C806   1.417       .  A
C803        C810   1.407       .  A
C804        N821   1.157       .  T
C805        N823   1.156       .  T
C806        C807   1.422       .  A
C806        C811   1.447       .  S
C807        C808   1.418       .  A
C807        C813   1.447       .  S
C808        C809   1.431       .  A
C809        C810   1.408       .  A
C809        C812   1.454       .  S
C810        C814   1.454       .  S
C811        N818   1.157       .  T
C812        N819   1.158       .  T
C813        N817   1.156       .  T
C814        N820   1.157       .  T
C815        N824   1.157       .  T
C816        N822   1.158       .  T
C825        C826   1.417       .  A
C825        C830   1.415       .  A
C825        C843   1.451       .  S
C826        C831   1.507   1_655  S
C826        C827   1.414       .  A
C827        C828   1.410       .  A
C827        C832   1.450       .  S
C828        C829   1.413       .  A
C828        C844   1.452       .  S
C829        C830   1.411       .  A
C830        C833   1.450       .  S
C831        C834   1.413       .  A
C831        C838   1.412       .  A
C832        N849   1.157       .  T
C833        N851   1.157       .  T
C834        C835   1.415       .  A
C834        C839   1.451       .  S
C835        C836   1.420       .  A
C835        C841   1.449       .  S
C836        C837   1.423       .  A
C837        C838   1.412       .  A
C837        C840   1.453       .  S
C838        C842   1.453       .  S
C839        N846   1.157       .  T
C840        N847   1.157       .  T
C841        N845   1.158       .  T
C842        N848   1.157       .  T
C843        N852   1.157   1_655  T
C844        N850   1.157       .  T
C853        C854   1.413       .  A
C853        C858   1.422       .  A
C853        C871   1.448       .  S
C854        C859   1.513       .  S
C854        C855   1.413       .  A
C855        C856   1.410       .  A
C855        C860   1.451       .  S
C856        C857   1.417       .  A
C856        C872   1.451       .  S
C857        C858   1.417       .  A
C858        C861   1.445       .  S
C859        C862   1.405       .  A
C859        C866   1.417   1_554  A
C860        N877   1.157   1_554  T
C861        N879   1.156       .  T
C862        C863   1.410       .  A
C862        C867   1.455       .  S
C863        C864   1.432   1_554  A
C863        C869   1.449       .  S
C864        C865   1.418       .  A
C865        C866   1.425       .  A
C865        C868   1.448       .  S
C866        C870   1.449       .  S
C867        N874   1.157       .  T
C868        N875   1.157       .  T
C869        N873   1.156       .  T
C870        N876   1.157       .  T
C871        N880   1.157       .  T
C872        N878   1.157       .  T
C881        C882   1.414   1_554  A
C881        C886   1.417       .  A
C881        C899   1.448       .  S
C882        C887   1.495       .  S
C882        C883   1.403       .  A
C883        C884   1.403       .  A
C883        C888   1.455       .  S
C884        C885   1.427   1_556  A
C884        C900   1.453       .  S
C885        C886   1.410       .  A
C886        C889   1.448       .  S
C887        C890   1.411       .  A
C887        C894   1.409       .  A
C888        N905   1.157       .  T
C889        N907   1.157       .  T
C890        C891   1.409       .  A
C890        C895   1.452       .  S
C891        C892   1.418       .  A
C891        C897   1.453       .  S
C892        C893   1.419       .  A
C893        C894   1.412       .  A
C893        C896   1.448       .  S
C894        C898   1.450       .  S
C895        N902   1.157       .  T
C896        N903   1.157       .  T
C897        N901   1.158       .  T
C898        N904   1.157       .  T
C899        N908   1.157       .  T
C900        N906   1.157       .  T
C909        C910   1.413       .  A
C909        C914   1.412       .  A
C909        C927   1.450       .  S
C910        C915   1.498   1_654  S
C910        C911   1.411   1_554  A
C911        C912   1.411       .  A
C911        C916   1.450       .  S
C912        C913   1.412   1_556  A
C912        C928   1.451       .  S
C913        C914   1.411       .  A
C914        C917   1.451       .  S
C915        C918   1.411   1_556  A
C915        C922   1.411       .  A
C916        N933   1.157       .  T
C917        N935   1.157       .  T
C918        C919   1.415   1_554  A
C918        C923   1.450       .  S
C919        C920   1.414       .  A
C919        C925   1.450   1_556  S
C920        C921   1.412       .  A
C921        C922   1.409       .  A
C921        C924   1.451       .  S
C922        C926   1.451       .  S
C923        N930   1.157       .  T
C924        N931   1.157       .  T
C925        N929   1.157       .  T
C926        N932   1.157   1_455  T
C927        N936   1.157   1_655  T
C928        N934   1.157       .  T
C937        C938   1.411       .  A
C937        C942   1.409       .  A
C937        C955   1.452       .  S
C938        C943   1.505       .  S
C938        C939   1.416       .  A
C939        C940   1.418       .  A
C939        C944   1.449       .  S
C940        C941   1.412       .  A
C940        C956   1.449       .  S
C941        C942   1.415       .  A
C942        C945   1.452       .  S
C943        C946   1.415       .  A
C943        C950   1.412       .  A
C944        N961   1.157       .  T
C945        N963   1.157       .  T
C946        C947   1.417       .  A
C946        C951   1.449       .  S
C947        C948   1.413       .  A
C947        C953   1.449       .  S
C948        C949   1.416       .  A
C949        C950   1.410       .  A
C949        C952   1.452       .  S
C950        C954   1.451       .  S
C951        N958   1.157       .  T
C952        N959   1.157       .  T
C953        N957   1.157       .  T
C954        N960   1.157       .  T
C955        N964   1.157       .  T
C956        N962   1.157       .  T
C965        C966   1.408       .  A
C965        C970   1.405       .  A
C965        C983   1.453       .  S
C966        C971   1.498       .  S
C966        C967   1.414       .  A
C967        C968   1.418       .  A
C967        C972   1.449       .  S
C968        C969   1.413       .  A
C968        C984   1.450       .  S
C969        C970   1.416       .  A
C970        C973   1.450       .  S
C971        C974   1.411       .  A
C971        C978   1.409       .  A
C972        N989   1.157       .  T
C973        N991   1.157       .  T
C974        C975   1.415       .  A
C974        C979   1.450       .  S
C975        C976   1.416       .  A
C975        C981   1.450       .  S
C976        C977   1.421       .  A
C977        C978   1.409       .  A
C977        C980   1.453       .  S
C978        C982   1.452       .  S
C979        N986   1.157       .  T
C980        N987   1.157       .  T
C981        N985   1.157       .  T
C982        N988   1.157       .  T
C983        N992   1.157       .  T
C984        N990   1.157       .  T
C993        C994   1.413       .  A
C993        C998   1.410       .  A
C993       C1011   1.452       .  S
C994        C999   1.501       .  S
C994        C995   1.411       .  A
C995        C996   1.415       .  A
C995       C1000   1.449       .  S
C996        C997   1.418       .  A
C996       C1012   1.448       .  S
C997        C998   1.415       .  A
C998       C1001   1.450       .  S
C999       C1002   1.416       .  A
C999       C1006   1.404       .  A
C1000      N1017   1.157       .  T
C1001      N1019   1.157       .  T
C1002      C1003   1.419       .  A
C1002      C1007   1.447       .  S
C1003      C1004   1.411       .  A
C1003      C1009   1.449       .  S
C1004      C1005   1.425       .  A
C1005      C1006   1.404       .  A
C1005      C1008   1.451       .  S
C1006      C1010   1.454       .  S
C1007      N1014   1.157       .  T
C1008      N1015   1.156       .  T
C1009      N1013   1.157       .  T
C1010      N1016   1.157       .  T
C1011      N1020   1.157       .  T
C1012      N1018   1.157       .  T
C1021      C1022   1.409       .  A
C1021      C1026   1.407       .  A
C1021      C1039   1.452       .  S
C1022      C1027   1.496       .  S
C1022      C1023   1.410       .  A
C1023      C1024   1.414       .  A
C1023      C1028   1.447       .  S
C1024      C1025   1.418       .  A
C1024      C1040   1.448       .  S
C1025      C1026   1.422       .  A
C1026      C1029   1.454       .  S
C1027      C1030   1.414       .  A
C1027      C1034   1.403       .  A
C1028      N1045   1.156       .  T
C1029      N1047   1.157       .  T
C1030      C1031   1.417       .  A
C1030      C1035   1.447       .  S
C1031      C1032   1.413       .  A
C1031      C1037   1.450       .  S
C1032      C1033   1.429       .  A
C1033      C1034   1.404       .  A
C1033      C1036   1.453       .  S
C1034      C1038   1.455       .  S
C1035      N1042   1.157       .  T
C1036      N1043   1.158       .  T
C1037      N1041   1.157       .  T
C1038      N1044   1.157       .  T
C1039      N1048   1.158       .  T
C1040      N1046   1.157       .  T
C1049      C1050   1.408       .  A
C1049      C1054   1.409       .  A
C1049      C1067   1.453       .  S
C1050      C1055   1.501   1_565  S
C1050      C1051   1.412       .  A
C1051      C1052   1.418       .  A
C1051      C1056   1.449       .  S
C1052      C1053   1.418       .  A
C1052      C1068   1.450       .  S
C1053      C1054   1.422       .  A
C1054      C1057   1.453       .  S
C1055      C1058   1.408       .  A
C1055      C1062   1.412       .  A
C1056      N1073   1.157       .  T
C1057      N1075   1.157       .  T
C1058      C1059   1.411       .  A
C1058      C1063   1.451       .  S
C1059      C1060   1.419       .  A
C1059      C1065   1.449       .  S
C1060      C1061   1.416       .  A
C1061      C1062   1.415       .  A
C1061      C1064   1.450       .  S
C1062      C1066   1.450       .  S
C1063      N1070   1.157       .  T
C1064      N1071   1.157       .  T
C1065      N1069   1.156       .  T
C1066      N1072   1.157   1_545  T
C1067      N1076   1.157   1_565  T
C1068      N1074   1.157       .  T
C1077      C1078   1.410       .  A
C1077      C1082   1.411       .  A
C1077      C1095   1.451       .  S
C1078      C1083   1.501       .  S
C1078      C1079   1.414       .  A
C1079      C1080   1.414       .  A
C1079      C1084   1.450       .  S
C1080      C1081   1.413       .  A
C1080      C1096   1.450       .  S
C1081      C1082   1.417       .  A
C1082      C1085   1.452       .  S
C1083      C1086   1.409       .  A
C1083      C1090   1.411       .  A
C1084      N1101   1.157       .  T
C1085      N1103   1.157       .  T
C1086      C1087   1.409       .  A
C1086      C1091   1.452       .  S
C1087      C1088   1.423       .  A
C1087      C1093   1.453       .  S
C1088      C1089   1.420       .  A
C1089      C1090   1.416       .  A
C1089      C1092   1.450       .  S
C1090      C1094   1.450       .  S
C1091      N1098   1.157       .  T
C1092      N1099   1.158       .  T
C1093      N1097   1.157       .  T
C1094      N1100   1.157       .  T
C1095      N1104   1.157       .  T
C1096      N1102   1.157       .  T
C1105      C1106   1.409       .  A
C1105      C1110   1.414       .  A
C1105      C1123   1.450       .  S
C1106      C1111   1.499       .  S
C1106      C1107   1.411       .  A
C1107      C1108   1.411       .  A
C1107      C1112   1.451       .  S
C1108      C1109   1.416       .  A
C1108      C1124   1.452       .  S
C1109      C1110   1.417       .  A
C1110      C1113   1.449       .  S
C1111      C1114   1.409       .  A
C1111      C1118   1.409       .  A
C1112      N1129   1.157       .  T
C1113      N1131   1.156       .  T
C1114      C1115   1.414       .  A
C1114      C1119   1.449       .  S
C1115      C1116   1.419       .  A
C1115      C1121   1.450       .  S
C1116      C1117   1.420       .  A
C1117      C1118   1.411       .  A
C1117      C1120   1.451       .  S
C1118      C1122   1.453       .  S
C1119      N1126   1.158       .  T
C1120      N1127   1.159       .  T
C1121      N1125   1.156       .  T
C1122      N1128   1.157       .  T
C1123      N1132   1.157       .  T
C1124      N1130   1.157       .  T
C1133      C1134   1.410       .  A
C1133      C1138   1.408       .  A
C1133      C1151   1.452       .  S
C1134      C1139   1.498       .  S
C1134      C1135   1.411       .  A
C1135      C1136   1.415       .  A
C1135      C1140   1.449       .  S
C1136      C1137   1.416       .  A
C1136      C1152   1.449       .  S
C1137      C1138   1.416       .  A
C1138      C1141   1.452       .  S
C1139      C1142   1.410       .  A
C1139      C1146   1.410       .  A
C1140      N1157   1.157       .  T
C1141      N1159   1.157       .  T
C1142      C1143   1.411       .  A
C1142      C1147   1.451       .  S
C1143      C1144   1.418       .  A
C1143      C1149   1.452       .  S
C1144      C1145   1.416       .  A
C1145      C1146   1.413       .  A
C1145      C1148   1.449       .  S
C1146      C1150   1.450       .  S
C1147      N1154   1.157       .  T
C1148      N1155   1.157       .  T
C1149      N1153   1.158       .  T
C1150      N1156   1.157       .  T
C1151      N1160   1.157       .  T
C1152      N1158   1.157       .  T
C1161      C1162   1.405       .  A
C1161      C1166   1.407       .  A
C1161      C1179   1.454       .  S
C1162      C1167   1.505       .  S
C1162      C1163   1.415   1_554  A
C1163      C1164   1.421       .  A
C1163      C1168   1.448       .  S
C1164      C1165   1.413       .  A
C1164      C1180   1.449       .  S
C1165      C1166   1.427   1_556  A
C1166      C1169   1.453       .  S
C1167      C1170   1.411       .  A
C1167      C1174   1.412       .  A
C1168      N1185   1.157       .  T
C1169      N1187   1.158       .  T
C1170      C1171   1.417       .  A
C1170      C1175   1.449       .  S
C1171      C1172   1.420       .  A
C1171      C1177   1.447       .  S
C1172      C1173   1.416       .  A
C1173      C1174   1.410       .  A
C1173      C1176   1.451       .  S
C1174      C1178   1.451       .  S
C1175      N1182   1.156       .  T
C1176      N1183   1.157       .  T
C1177      N1181   1.157       .  T
C1178      N1184   1.158       .  T
C1179      N1188   1.157       .  T
C1180      N1186   1.157       .  T
C1189      C1190   1.404       .  A
C1189      C1194   1.406       .  A
C1189      C1207   1.455       .  S
C1190      C1195   1.503       .  S
C1190      C1191   1.417   1_556  A
C1191      C1192   1.420       .  A
C1191      C1196   1.449       .  S
C1192      C1193   1.415       .  A
C1192      C1208   1.449       .  S
C1193      C1194   1.430   1_554  A
C1194      C1197   1.453       .  S
C1195      C1198   1.415       .  A
C1195      C1202   1.405   1_556  A
C1196      N1213   1.158       .  T
C1197      N1215   1.158       .  T
C1198      C1199   1.419       .  A
C1198      C1203   1.449       .  S
C1199      C1200   1.418       .  A
C1199      C1205   1.450       .  S
C1200      C1201   1.431   1_556  A
C1201      C1202   1.408       .  A
C1201      C1204   1.453       .  S
C1202      C1206   1.455       .  S
C1203      N1210   1.158       .  T
C1204      N1211   1.158       .  T
C1205      N1209   1.157       .  T
C1206      N1212   1.157       .  T
C1207      N1216   1.157       .  T
C1208      N1214   1.157       .  T
C1217      C1218   1.409       .  A
C1217      C1222   1.409       .  A
C1217      C1235   1.453       .  S
C1218      C1223   1.501   1_545  S
C1218      C1219   1.411       .  A
C1219      C1220   1.416       .  A
C1219      C1224   1.450       .  S
C1220      C1221   1.418       .  A
C1220      C1236   1.450       .  S
C1221      C1222   1.422       .  A
C1222      C1225   1.453       .  S
C1223      C1226   1.411       .  A
C1223      C1230   1.413   1_556  A
C1224      N1241   1.157       .  T
C1225      N1243   1.158       .  T
C1226      C1227   1.412       .  A
C1226      C1231   1.450       .  S
C1227      C1228   1.415   1_556  A
C1227      C1233   1.451       .  S
C1228      C1229   1.412       .  A
C1229      C1230   1.411       .  A
C1229      C1232   1.449       .  S
C1230      C1234   1.451       .  S
C1231      N1238   1.157       .  T
C1232      N1239   1.157       .  T
C1233      N1237   1.158       .  T
C1234      N1240   1.157   1_565  T
C1235      N1244   1.157       .  T
C1236      N1242   1.157       .  T
C1245      C1246   1.411       .  A
C1245      C1250   1.411       .  A
C1245      C1263   1.450       .  S
C1246      C1251   1.502       .  S
C1246      C1247   1.414   1_554  A
C1247      C1248   1.413       .  A
C1247      C1252   1.450       .  S
C1248      C1249   1.411       .  A
C1248      C1264   1.451       .  S
C1249      C1250   1.415   1_556  A
C1250      C1253   1.452       .  S
C1251      C1254   1.409       .  A
C1251      C1258   1.412       .  A
C1252      N1269   1.157       .  T
C1253      N1271   1.157       .  T
C1254      C1255   1.410       .  A
C1254      C1259   1.452       .  S
C1255      C1256   1.421       .  A
C1255      C1261   1.452       .  S
C1256      C1257   1.418       .  A
C1257      C1258   1.417       .  A
C1257      C1260   1.450       .  S
C1258      C1262   1.450       .  S
C1259      N1266   1.157       .  T
C1260      N1267   1.157       .  T
C1261      N1265   1.158       .  T
C1262      N1268   1.157       .  T
C1263      N1272   1.157       .  T
C1264      N1270   1.157       .  T
