geometry optimzed in LAMMPS
_audit_creation_date              2020-11-30 
_audit_creation_method            'lammps2cif' 
_symmetry_space_group_name_H-M    'P1' 
_symmetry_Int_Tables_number       1 
_symmetry_cell_setting            triclinic 
loop_ 
_symmetry_equiv_pos_as_xyz 
  x,y,z 
_cell_length_a                    74.48421099756662 
_cell_length_b                    74.03636678038134 
_cell_length_c                    74.06137546845484 
_cell_angle_alpha                 89.90014642814134 
_cell_angle_beta                  90.0090729125557 
_cell_angle_gamma                 90.08489601792729 
loop_ 
_atom_site_label 
_atom_site_type_symbol 
_atom_site_fract_x 
_atom_site_fract_y 
_atom_site_fract_z 
_atom_site_charge 
N1          N  0.50057603  0.85337748  0.70295372    -0.27170
N2          N  0.50362307  0.85820821  0.68603852    -0.35030
C3          C  0.50407471  0.87631263  0.68499896     0.01170
C4          C  0.50098861  0.88320999  0.70202675     0.07200
C5          C  0.49896410  0.86832694  0.71316084    -0.05900
H6          H  0.50623356  0.88391622  0.67269737     0.07870
H7          H  0.49664549  0.86832090  0.72757846     0.09070
Cu8        Cu  0.50592042  0.84009502  0.66490217     0.44170
Cu9        Cu  0.49865312  0.82660255  0.71092941     0.41990
Cu10       Cu  0.49731724  0.79316328  0.67454969     0.43880
N11         N  0.50348227  0.82047172  0.64517389    -0.34550
N12         N  0.49965893  0.80337043  0.64855772    -0.28810
C13         C  0.49751648  0.79460573  0.63279245    -0.04910
C14         C  0.49990445  0.80685690  0.61882282     0.07310
C15         C  0.50403548  0.82302750  0.62723087     0.01100
H16         H  0.49410227  0.78044958  0.63158417     0.08760
H17         H  0.50731160  0.83575537  0.62092145     0.07830
N18         N  0.49677901  0.78681593  0.70184114    -0.36000
N19         N  0.49743461  0.79891267  0.71496146    -0.28180
C20         C  0.49779039  0.79027746  0.73093550    -0.03420
C21         C  0.49708021  0.77192668  0.72771913     0.05190
C22         C  0.49663857  0.77017417  0.70915471     0.03280
H23         H  0.49880793  0.79686454  0.74392729     0.08390
H24         H  0.49685592  0.75774800  0.70149474     0.07220
N25         N  0.49935248  0.63805639  0.81367441    -0.27170
N26         N  0.49432350  0.63489728  0.83048531    -0.35030
C27         C  0.49335566  0.61699449  0.83318360     0.01170
C28         C  0.49857630  0.60831807  0.81748711     0.07200
C29         C  0.50196768  0.62215599  0.80528661    -0.05900
H30         H  0.48921970  0.61090683  0.84575019     0.07870
H31         H  0.50639384  0.62077016  0.79144408     0.09070
Cu32       Cu  0.49131411  0.65474781  0.84986685     0.44170
Cu33       Cu  0.50257650  0.66397003  0.80341640     0.41990
Cu34       Cu  0.50245567  0.70010501  0.83719192     0.43880
N35         N  0.49393170  0.67558692  0.86826313    -0.34550
N36         N  0.49851899  0.69224581  0.86375357    -0.28810
C37         C  0.50010771  0.70223598  0.87885128    -0.04910
C38         C  0.49611679  0.69130382  0.89346059     0.07310
C39         C  0.49244436  0.67449458  0.88630173     0.01100
H40         H  0.50395916  0.71632687  0.87916809     0.08760
H41         H  0.48931996  0.66226595  0.89368645     0.07830
N42         N  0.50401169  0.70431937  0.80956943    -0.36000
N43         N  0.50386619  0.69132807  0.79731509    -0.28180
C44         C  0.50392650  0.69885970  0.78076771    -0.03420
C45         C  0.50440320  0.71740567  0.78275837     0.05190
C46         C  0.50424608  0.72040859  0.80114775     0.03280
H47         H  0.50333409  0.69140150  0.76822993     0.08390
H48         H  0.50368035  0.73332755  0.80792788     0.07220
N49         N  0.80457436  0.63807586  0.50362693    -0.27170
N50         N  0.82075700  0.63360602  0.50944822    -0.35030
C51         C  0.82164613  0.61553418  0.51104285     0.01170
C52         C  0.80526876  0.60839314  0.50592704     0.07200
C53         C  0.79471767  0.62301067  0.50137963    -0.05900
H54         H  0.83343355  0.60812278  0.51526522     0.07870
H55         H  0.78095256  0.62273915  0.49672523     0.09070
Cu56       Cu  0.84114934  0.65226040  0.51387245     0.44170
Cu57       Cu  0.79655125  0.66443715  0.49947142     0.41990
Cu58       Cu  0.82976820  0.69932144  0.50788917     0.43880
N59         N  0.85995537  0.67297463  0.51271032    -0.34550
N60         N  0.85585960  0.69008637  0.50978379    -0.28810
C61         C  0.87107730  0.69958712  0.50734044    -0.04910
C62         C  0.88547937  0.68785605  0.50860141     0.07310
C63         C  0.87789053  0.67117805  0.51245968     0.01100
H64         H  0.87157603  0.71384515  0.50414407     0.08760
H65         H  0.88474778  0.65852807  0.51456903     0.07830
N66         N  0.80260902  0.70421948  0.50507467    -0.36000
N67         N  0.79067255  0.69161701  0.50114869    -0.28180
C68         C  0.77430213  0.69913487  0.50029177    -0.03420
C69         C  0.77590808  0.71730590  0.50438818     0.05190
C70         C  0.79410790  0.72006497  0.50706661     0.03280
H71         H  0.76230511  0.69174963  0.49686383     0.08390
H72         H  0.80065966  0.73263439  0.51057046     0.07220
N73         N  0.69311474  0.85253975  0.51132660    -0.27170
N74         N  0.67760377  0.85596109  0.50343899    -0.35030
C75         C  0.67664640  0.87371308  0.49998574     0.01170
C76         C  0.69216027  0.88221487  0.50626511     0.07200
C77         C  0.70222899  0.86811389  0.51348669    -0.05900
H78         H  0.66519394  0.87998733  0.49357441     0.07870
H79         H  0.71500254  0.86880172  0.52021878     0.09070
Cu80       Cu  0.65735198  0.83691026  0.49946693     0.44170
Cu81       Cu  0.70161527  0.82660280  0.51728390     0.41990
Cu82       Cu  0.66902267  0.79106516  0.50724754     0.43880
N83         N  0.63839582  0.81620154  0.50066896    -0.34550
N84         N  0.64275011  0.79924086  0.50397912    -0.28810
C85         C  0.62770365  0.78931643  0.50577838    -0.04910
C86         C  0.61304603  0.80052728  0.50319708     0.07310
C87         C  0.62040016  0.81751263  0.50016420     0.01100
H88         H  0.62759926  0.77529628  0.50979439     0.08760
H89         H  0.61313957  0.83004318  0.49841430     0.07830
N90         N  0.69626203  0.78688518  0.51018865    -0.36000
N91         N  0.70799792  0.79953880  0.51458372    -0.28180
C92         C  0.72450058  0.79222709  0.51510037    -0.03420
C93         C  0.72312181  0.77417592  0.51039541     0.05190
C94         C  0.70498358  0.77126528  0.50762238     0.03280
H95         H  0.73642652  0.79961590  0.51879938     0.08390
H96         H  0.69859749  0.75871902  0.50374600     0.07220
N97         N  0.80527832  0.49199952  0.64911221    -0.27170
N98         N  0.82090117  0.49963310  0.64544808    -0.35030
C99         C  0.82190905  0.50252522  0.62757820     0.01170
C100        C  0.80621848  0.49637165  0.61946480     0.07200
C101        C  0.79606163  0.48961936  0.63365800    -0.05900
H102        H  0.83354223  0.50815031  0.62085232     0.07870
H103        H  0.78333510  0.48271803  0.63296981     0.09070
Cu104      Cu  0.84113211  0.50385867  0.66445662     0.44170
Cu105      Cu  0.79697816  0.48575308  0.67501828     0.41990
Cu106      Cu  0.82899104  0.49636189  0.71047991     0.43880
N107        N  0.85979901  0.50284529  0.68541704    -0.34550
N108        N  0.85528451  0.49950527  0.70232845    -0.28810
C109        C  0.87022697  0.49747883  0.71232757    -0.04910
C110        C  0.88502954  0.49999548  0.70125861     0.07310
C111        C  0.87780343  0.50325351  0.68425288     0.01100
H112        H  0.87009983  0.49331702  0.72628421     0.08760
H113        H  0.88515426  0.50502565  0.67177135     0.07830
N114        N  0.80187236  0.49258457  0.71471941    -0.36000
N115        N  0.79038865  0.48769649  0.70205168    -0.28180
C116        C  0.77391819  0.48633693  0.70932564    -0.03420
C117        C  0.77497191  0.49109391  0.72739920     0.05190
C118        C  0.79298807  0.49474777  0.73030764     0.03280
H119        H  0.76225939  0.48214115  0.70182056     0.08390
H120        H  0.79918205  0.49897096  0.74282922     0.07220
N121        N  0.64133315  0.49200876  0.80937570    -0.27170
N122        N  0.63688028  0.49558988  0.82621149    -0.35030
C123        C  0.61897931  0.49650311  0.82746177     0.01170
C124        C  0.61151481  0.49309683  0.81062047     0.07200
C125        C  0.62626180  0.49017550  0.79945752    -0.05900
H126        H  0.61186369  0.49917871  0.83990885     0.07870
H127        H  0.62630244  0.48648904  0.78539416     0.09070
Cu128      Cu  0.65521739  0.49787025  0.84699273     0.44170
Cu129      Cu  0.66798886  0.49080827  0.80152767     0.41990
Cu130      Cu  0.70070087  0.50719104  0.83605011     0.43880
N131        N  0.67519114  0.50025980  0.86617170    -0.34550
N132        N  0.69180282  0.50502646  0.86244449    -0.28810
C133        C  0.70120942  0.50606036  0.87793438    -0.04910
C134        C  0.69004221  0.50129756  0.89234871     0.07310
C135        C  0.67364167  0.49764965  0.88397960     0.01100
H136        H  0.71509147  0.50996570  0.87817630     0.08760
H137        H  0.66131137  0.49312105  0.89020460     0.07830
N138        N  0.70667949  0.50132450  0.80937098    -0.36000
N139        N  0.69527639  0.49456881  0.79744491    -0.28180
C140        C  0.70412017  0.49125126  0.78202090    -0.03420
C141        C  0.72194607  0.49600297  0.78430516     0.05190
C142        C  0.72299490  0.50262228  0.80174002     0.03280
H143        H  0.69797975  0.48582446  0.76994483     0.08390
H144        H  0.73451286  0.50837522  0.80842454     0.07220
N145        N  0.80402959  0.85283209  0.99847022    -0.27170
N146        N  0.82006017  0.85747542  0.00458008    -0.35030
C147        C  0.82063391  0.87556102  0.00629515     0.01170
C148        C  0.80425584  0.88251927  0.00081494     0.07200
C149        C  0.79399072  0.86772389  0.99615790    -0.05900
H150        H  0.83202888  0.88308687  0.01135628     0.07870
H151        H  0.78004713  0.86767048  0.99208208     0.09070
Cu152      Cu  0.84023935  0.83877652  0.01024708     0.44170
Cu153      Cu  0.79592632  0.82647741  0.99506564     0.41990
Cu154      Cu  0.82966407  0.79193850  0.00152193     0.43880
N155        N  0.85904548  0.81791884  0.01046386    -0.34550
N156        N  0.85541146  0.80111939  0.00584851    -0.28810
C157        C  0.87079949  0.79171779  0.00457927    -0.04910
C158        C  0.88508676  0.80300705  0.00896473     0.07310
C159        C  0.87682347  0.81949762  0.01278100     0.01100
H160        H  0.87119708  0.77794242  0.00004365     0.08760
H161        H  0.88326241  0.83207471  0.01641054     0.07830
N162        N  0.80248567  0.78686921  0.00047661    -0.36000
N163        N  0.79020908  0.79939936  0.99760460    -0.28180
C164        C  0.77384386  0.79182966  0.99842564    -0.03420
C165        C  0.77594048  0.77371998  0.00245876     0.05190
C166        C  0.79427071  0.77100262  0.00339701     0.03280
H167        H  0.76150031  0.79908328  0.99611981     0.08390
H168        H  0.80112694  0.75847140  0.00637905     0.07220
N169        N  0.69260279  0.63910950  0.00670214    -0.27170
N170        N  0.67711129  0.63633118  0.99845405    -0.35030
C171        C  0.67512047  0.61851639  0.99560948     0.01170
C172        C  0.68981450  0.60958349  0.00289841     0.07200
C173        C  0.70075744  0.62315848  0.00951417    -0.05900
H174        H  0.66366004  0.61264541  0.98892518     0.07870
H175        H  0.71345452  0.62152232  0.01642035     0.09070
Cu176      Cu  0.65805104  0.65644991  0.99392189     0.44170
Cu177      Cu  0.70190120  0.66439983  0.01373168     0.41990
Cu178      Cu  0.66947865  0.70069994  0.00951389     0.43880
N179        N  0.63943179  0.67725699  0.99683664    -0.34550
N180        N  0.64354148  0.69322715  0.00356427    -0.28810
C181        C  0.62841175  0.70268658  0.00645457    -0.04910
C182        C  0.61390345  0.69230156  0.00098641     0.07310
C183        C  0.62152692  0.67624117  0.99500072     0.01100
H184        H  0.62817317  0.71557869  0.01318294     0.08760
H185        H  0.61445350  0.66425822  0.99059014     0.07830
N186        N  0.69672225  0.70457629  0.01202204    -0.36000
N187        N  0.70853356  0.69145027  0.01410892    -0.28180
C188        C  0.72514365  0.69853824  0.01411672    -0.03420
C189        C  0.72368564  0.71698089  0.01143551     0.05190
C190        C  0.70546888  0.72032949  0.01044479     0.03280
H191        H  0.73721477  0.69068671  0.01578407     0.08390
H192        H  0.69905234  0.73321762  0.00804835     0.07220
N193        N  0.80497579  0.99788297  0.86396249    -0.27170
N194        N  0.82075270  0.99095759  0.86827392    -0.35030
C195        C  0.82158970  0.98902168  0.88627534     0.01170
C196        C  0.80561694  0.99500037  0.89383624     0.07200
C197        C  0.79547269  0.00071450  0.87916681    -0.05900
H198        H  0.83321360  0.98396092  0.89342731     0.07870
H199        H  0.78246917  0.00706547  0.87932105     0.09070
Cu200      Cu  0.84144382  0.98609276  0.85004213     0.44170
Cu201      Cu  0.79682263  0.00259411  0.83755857     0.41990
Cu202      Cu  0.83066934  0.99247469  0.80393466     0.43880
N203        N  0.86075251  0.98741296  0.82979284    -0.34550
N204        N  0.85667621  0.99087973  0.81285965    -0.28810
C205        C  0.87178267  0.99368433  0.80337259    -0.04910
C206        C  0.88650499  0.99154477  0.81475991     0.07310
C207        C  0.87868309  0.98742043  0.83145177     0.01100
H208        H  0.87148758  0.99765577  0.78943336     0.08760
H209        H  0.88543047  0.98500065  0.84414622     0.07830
N210        N  0.80392896  0.99569339  0.79821197    -0.36000
N211        N  0.79168760  0.00063336  0.81008209    -0.28180
C212        C  0.77586648  0.00231208  0.80153228    -0.03420
C213        C  0.77826751  0.99816678  0.78338682     0.05190
C214        C  0.79624286  0.99367564  0.78198646     0.03280
H215        H  0.76344717  0.00602155  0.80811929     0.08390
H216        H  0.80339205  0.98879945  0.77036272     0.07220
N217        N  0.69483448  0.98952533  0.65031685    -0.27170
N218        N  0.67796501  0.99279473  0.64618961    -0.35030
C219        C  0.67643158  0.99429555  0.62825281     0.01170
C220        C  0.69312751  0.99144526  0.62025445     0.07200
C221        C  0.70448582  0.98837177  0.63495899    -0.05900
H222        H  0.66389268  0.99738117  0.62157754     0.07870
H223        H  0.71860581  0.98539096  0.63490354     0.09070
Cu224      Cu  0.65767452  0.99445249  0.66511238     0.44170
Cu225      Cu  0.70305460  0.98880011  0.67706763     0.41990
Cu226      Cu  0.66892813  0.00669473  0.70981324     0.43880
N227        N  0.63893022  0.99685355  0.68550490    -0.34550
N228        N  0.64268099  0.00282722  0.70181106    -0.28810
C229        C  0.62735409  0.00417975  0.71137829    -0.04910
C230        C  0.61315731  0.99839985  0.70059157     0.07310
C231        C  0.62128230  0.99377395  0.68432655     0.01100
H232        H  0.62686044  0.00934681  0.72494516     0.08760
H233        H  0.61481929  0.98874561  0.67225470     0.07830
N234        N  0.69554702  0.00134585  0.71548918    -0.36000
N235        N  0.70726347  0.99391940  0.70431144    -0.28180
C236        C  0.72270935  0.99119593  0.71323215    -0.03420
C237        C  0.72064350  0.99707905  0.73084770     0.05190
C238        C  0.70332237  0.00370313  0.73166686     0.03280
H239        H  0.73469236  0.98553525  0.70724300     0.08390
H240        H  0.69680922  0.01023003  0.74288747     0.07220
N241        N  0.99858327  0.85392210  0.81113950    -0.27170
N242        N  0.00017617  0.85805386  0.82842681    -0.35030
C243        C  0.00102901  0.87609128  0.83014481     0.01170
C244        C  0.00002086  0.88364195  0.81312765     0.07200
C245        C  0.99834034  0.86927370  0.80136067    -0.05900
H246        H  0.00232212  0.88318293  0.84284305     0.07870
H247        H  0.99718459  0.86991066  0.78681112     0.09070
Cu248      Cu  0.00113639  0.83908401  0.84894984     0.44170
Cu249      Cu  0.99711993  0.82750935  0.80199599     0.41990
Cu250      Cu  0.99790236  0.79218611  0.83679748     0.43880
N251        N  0.00131332  0.81822839  0.86758002    -0.34550
N252        N  0.00005868  0.80096129  0.86326906    -0.28810
C253        C  0.99978300  0.79102065  0.87851776    -0.04910
C254        C  0.00111836  0.80265737  0.89307397     0.07310
C255        C  0.00187288  0.81976791  0.88562227     0.01100
H256        H  0.99793954  0.77653879  0.87892317     0.08760
H257        H  0.00235852  0.83245913  0.89283328     0.07830
N258        N  0.99628973  0.78729266  0.80928938    -0.36000
N259        N  0.99615394  0.80002391  0.79671555    -0.28180
C260        C  0.99550632  0.79217457  0.78036564    -0.03420
C261        C  0.99501136  0.77370196  0.78283083     0.05190
C262        C  0.99566013  0.77103068  0.80126260     0.03280
H263        H  0.99551153  0.79937812  0.76764266     0.08390
H264        H  0.99592840  0.75822438  0.80831590     0.07220
N265        N  0.99656042  0.63832744  0.70096862    -0.27170
N266        N  0.99670390  0.63351296  0.68378491    -0.35030
C267        C  0.99682170  0.61537799  0.68280414     0.01170
C268        C  0.99699674  0.60848288  0.70018009     0.07200
C269        C  0.99662858  0.62340375  0.71137118    -0.05900
H270        H  0.99672414  0.60774628  0.67035680     0.07870
H271        H  0.99599324  0.62346991  0.72595850     0.09070
Cu272      Cu  0.99651424  0.65183183  0.66245345     0.44170
Cu273      Cu  0.99606583  0.66495891  0.70942929     0.41990
Cu274      Cu  0.99759685  0.69922537  0.67422885     0.43880
N275        N  0.99614788  0.67266042  0.64356459    -0.34550
N276        N  0.99667294  0.68998462  0.64785885    -0.28810
C277        C  0.99611347  0.69994050  0.63264236    -0.04910
C278        C  0.99491872  0.68831688  0.61811315     0.07310
C279        C  0.99520173  0.67114072  0.62549726     0.01100
H280        H  0.99633501  0.71454672  0.63220492     0.08760
H281        H  0.99490453  0.65845398  0.61827894     0.07830
N282        N  0.99735267  0.70493311  0.70160394    -0.36000
N283        N  0.99654914  0.69246750  0.71440001    -0.28180
C284        C  0.99633580  0.70061821  0.73060661    -0.03420
C285        C  0.99723781  0.71903221  0.72782582     0.05190
C286        C  0.99773483  0.72134889  0.70933266     0.03280
H287        H  0.99567729  0.69365399  0.74344531     0.08390
H288        H  0.99821436  0.73400796  0.70202791     0.07220
N289        N  0.49933087  0.13867462  0.70122741    -0.27170
N290        N  0.49648059  0.13425316  0.68417775    -0.35030
C291        C  0.49549228  0.11621142  0.68284634     0.01170
C292        C  0.49760983  0.10886239  0.69986733     0.07200
C293        C  0.50021357  0.12347639  0.71122119    -0.05900
H294        H  0.49372171  0.10892255  0.67031727     0.07870
H295        H  0.50321092  0.12313738  0.72550194     0.09070
Cu296      Cu  0.49486738  0.15256514  0.66310910     0.44170
Cu297      Cu  0.50212695  0.16521664  0.70976624     0.41990
Cu298      Cu  0.49529013  0.19932408  0.67467342     0.43880
N299        N  0.49464733  0.17303481  0.64406384    -0.34550
N300        N  0.49490015  0.19034310  0.64831567    -0.28810
C301        C  0.49573855  0.20024823  0.63310125    -0.04910
C302        C  0.49571978  0.18855939  0.61854199     0.07310
C303        C  0.49522001  0.17142326  0.62601851     0.01100
H304        H  0.49713258  0.21477145  0.63281662     0.08760
H305        H  0.49560724  0.15870423  0.61885267     0.07830
N306        N  0.49820345  0.20503146  0.70178391    -0.36000
N307        N  0.50155774  0.19285405  0.71439402    -0.28180
C308        C  0.50326097  0.20130547  0.73033922    -0.03420
C309        C  0.50087443  0.21970532  0.72767871     0.05190
C310        C  0.49738450  0.22145356  0.70939239     0.03280
H311        H  0.50577475  0.19450291  0.74303121     0.08390
H312        H  0.49385052  0.23350668  0.70205508     0.07220
N313        N  0.49700111  0.35310231  0.81232297    -0.27170
N314        N  0.49843232  0.35768495  0.82951226    -0.35030
C315        C  0.49972335  0.37573173  0.83071497     0.01170
C316        C  0.49932028  0.38283152  0.81346452     0.07200
C317        C  0.49732430  0.36816697  0.80211221    -0.05900
H318        H  0.50080116  0.38312943  0.84325488     0.07870
H319        H  0.49648625  0.36839897  0.78752884     0.09070
Cu320      Cu  0.49913967  0.33938174  0.85067141     0.44170
Cu321      Cu  0.49573736  0.32651195  0.80371446     0.41990
Cu322      Cu  0.50457998  0.29283644  0.83857310     0.43880
N323        N  0.50036218  0.31863265  0.86940668    -0.34550
N324        N  0.50255496  0.30149379  0.86496297    -0.28810
C325        C  0.50257405  0.29134103  0.88003907    -0.04910
C326        C  0.50017737  0.30269672  0.89458497     0.07310
C327        C  0.49897000  0.31988860  0.88744747     0.01100
H328        H  0.50414993  0.27681960  0.88036226     0.08760
H329        H  0.49719145  0.33236823  0.89481074     0.07830
N330        N  0.50209680  0.28701930  0.81144487    -0.36000
N331        N  0.49798308  0.29903532  0.79890946    -0.28180
C332        C  0.49646062  0.29055527  0.78296555    -0.03420
C333        C  0.49969825  0.27229875  0.78557257     0.05190
C334        C  0.50354267  0.27065987  0.80379212     0.03280
H335        H  0.49335112  0.29722437  0.77033668     0.08390
H336        H  0.50759940  0.25871837  0.81105000     0.07220
O337        O  0.49967180  0.96919255  0.72429746    -0.72820
O338        O  0.49986618  0.02346477  0.72220983    -0.73800
O339        O  0.47229227  0.99659551  0.72298931    -0.62420
O340        O  0.52721461  0.99627708  0.72241817    -0.70830
O341        O  0.52567991  0.99505485  0.69275070    -0.70390
O342        O  0.47297692  0.99516060  0.69321708    -0.61640
O343        O  0.49957495  0.02224847  0.69230281    -0.74150
O344        O  0.49943770  0.96812964  0.69432646    -0.72930
Cu345      Cu  0.49974107  0.99638248  0.72413235     1.04560
Cu346      Cu  0.49936812  0.99509460  0.69222408     1.04330
C347        C  0.49983012  0.96017506  0.70962618     0.93380
C348        C  0.50000715  0.03141035  0.70689899     0.92520
C349        C  0.46404559  0.99627580  0.70776862     0.84660
C350        C  0.53508163  0.99580865  0.70699687     0.90930
N351        N  0.99879970  0.13834449  0.81121564    -0.27170
N352        N  0.00012800  0.13410955  0.82851996    -0.35030
C353        C  0.00106958  0.11606024  0.83017440     0.01170
C354        C  0.00039314  0.10861842  0.81310937     0.07200
C355        C  0.99880576  0.12306045  0.80138000    -0.05900
H356        H  0.00219110  0.10888403  0.84286316     0.07870
H357        H  0.99788171  0.12252086  0.78681165     0.09070
Cu358      Cu  0.00071289  0.15294657  0.84918497     0.44170
Cu359      Cu  0.99738477  0.16477380  0.80200979     0.41990
Cu360      Cu  0.99828688  0.19984758  0.83672080     0.43880
N361        N  0.00111756  0.17388683  0.86772125    -0.34550
N362        N  0.00027905  0.19114440  0.86321616    -0.28810
C363        C  0.00034372  0.20122982  0.87832565    -0.04910
C364        C  0.00145296  0.18971419  0.89301074     0.07310
C365        C  0.00170917  0.17250653  0.88579426     0.01100
H366        H  0.99897122  0.21576547  0.87856296     0.08760
H367        H  0.00197838  0.15988546  0.89317739     0.07830
N368        N  0.99659079  0.20492402  0.80927605    -0.36000
N369        N  0.99641157  0.19226901  0.79667632    -0.28180
C370        C  0.99565367  0.20022152  0.78035237    -0.03420
C371        C  0.99512199  0.21868050  0.78288257     0.05190
C372        C  0.99587486  0.22123269  0.80131286     0.03280
H373        H  0.99557403  0.19310076  0.76760675     0.08390
H374        H  0.99613568  0.23399179  0.80841111     0.07220
N375        N  0.99533802  0.35402270  0.69971604    -0.27170
N376        N  0.99481103  0.35840808  0.68241108    -0.35030
C377        C  0.99586510  0.37646274  0.68083704     0.01170
C378        C  0.99747593  0.38378758  0.69793801     0.07200
C379        C  0.99680040  0.36919495  0.70960834    -0.05900
H380        H  0.99531781  0.38367507  0.66814697     0.07870
H381        H  0.99766518  0.36955383  0.72418729     0.09070
Cu382      Cu  0.99369581  0.33974054  0.66153557     0.44170
Cu383      Cu  0.99476051  0.32756322  0.70889653     0.41990
Cu384      Cu  0.99591260  0.29280970  0.67410757     0.43880
N385        N  0.99436249  0.31878159  0.64294452    -0.34550
N386        N  0.99528346  0.30154420  0.64755678    -0.28810
C387        C  0.99583469  0.29138711  0.63251293    -0.04910
C388        C  0.99512576  0.30282298  0.61778765     0.07310
C389        C  0.99430938  0.32006916  0.62483049     0.01100
H390        H  0.99675130  0.27680619  0.63232294     0.08760
H391        H  0.99382402  0.33262042  0.61734417     0.07830
N392        N  0.99607167  0.28749509  0.70155452    -0.36000
N393        N  0.99542040  0.30007022  0.71421024    -0.28180
C394        C  0.99555513  0.29204000  0.73051279    -0.03420
C395        C  0.99654842  0.27360769  0.72792012     0.05190
C396        C  0.99670653  0.27115373  0.70945737     0.03280
H397        H  0.99507402  0.29909603  0.74328507     0.08390
H398        H  0.99712185  0.25844226  0.70228405     0.07220
N399        N  0.14085947  0.00259523  0.81148166    -0.27170
N400        N  0.13716945  0.00488879  0.82875452    -0.35030
C401        C  0.11927601  0.00411559  0.83100976     0.01170
C402        C  0.11139901  0.00073703  0.81437141     0.07200
C403        C  0.12550638  0.00015625  0.80227528    -0.05900
H404        H  0.11263823  0.00572296  0.84385824     0.07870
H405        H  0.12473283  0.99738453  0.78795456     0.09070
Cu406      Cu  0.15697677  0.00622533  0.84849830     0.44170
Cu407      Cu  0.16665169  0.00091248  0.80182756     0.41990
Cu408      Cu  0.20053080  0.98877039  0.83524726     0.43880
N409        N  0.17811812  0.00175415  0.86629701    -0.34550
N410        N  0.19361055  0.99437364  0.86176386    -0.28810
C411        C  0.20332381  0.99132347  0.87681944    -0.04910
C412        C  0.19356514  0.99732871  0.89159884     0.07310
C413        C  0.17766409  0.00379858  0.88427800     0.01100
H414        H  0.21600665  0.98431463  0.87688152     0.08760
H415        H  0.16616358  0.00882519  0.89163575     0.07830
N416        N  0.20514511  0.99029465  0.80768482    -0.36000
N417        N  0.19310407  0.99585974  0.79584101    -0.28180
C418        C  0.20095009  0.99788694  0.77966416    -0.03420
C419        C  0.21879599  0.99293427  0.78117588     0.05190
C420        C  0.22094466  0.98830585  0.79921846     0.03280
H421        H  0.19418567  0.00351495  0.76810612     0.08390
H422        H  0.23329773  0.98450733  0.80589839     0.07220
N423        N  0.30524813  0.99883558  0.65073120    -0.27170
N424        N  0.32088888  0.99154012  0.64656774    -0.35030
C425        C  0.32162582  0.98929854  0.62860400     0.01170
C426        C  0.30577317  0.99555633  0.62091264     0.07200
C427        C  0.29576598  0.00164326  0.63548976    -0.05900
H428        H  0.33320875  0.98406832  0.62152712     0.07870
H429        H  0.28295998  0.00838949  0.63522345     0.09070
Cu430      Cu  0.34169621  0.98696661  0.66491872     0.44170
Cu431      Cu  0.29735619  0.00429987  0.67698241     0.41990
Cu432      Cu  0.33065546  0.99346057  0.71102123     0.43880
N433        N  0.36094352  0.98793993  0.68539454    -0.34550
N434        N  0.35672187  0.99114157  0.70236713    -0.28810
C435        C  0.37176596  0.99354355  0.71208792    -0.04910
C436        C  0.38647713  0.99138055  0.70081267     0.07310
C437        C  0.37892521  0.98784885  0.68393755     0.01100
H438        H  0.37162568  0.99755725  0.72604202     0.08760
H439        H  0.38600871  0.98603898  0.67131784     0.07830
N440        N  0.30390415  0.99729360  0.71642457    -0.36000
N441        N  0.29191521  0.00242121  0.70434752    -0.28180
C442        C  0.27587626  0.00381663  0.71249559    -0.03420
C443        C  0.27784955  0.99927012  0.73058814     0.05190
C444        C  0.29582022  0.99491358  0.73241969     0.03280
H445        H  0.26355209  0.00731948  0.70560394     0.08390
H446        H  0.30259976  0.98960252  0.74410966     0.07220
O447        O  0.97451891  0.99622123  0.82080246    -0.72820
O448        O  0.02734285  0.99585760  0.81739389    -0.73800
O449        O  0.00114907  0.02317035  0.81882381    -0.62420
O450        O  0.00073662  0.96907500  0.81896422    -0.70830
O451        O  0.99865797  0.96900202  0.78903345    -0.70390
O452        O  0.99905601  0.02327203  0.78889906    -0.61640
O453        O  0.02619458  0.99592084  0.78748555    -0.74150
O454        O  0.97174695  0.99628996  0.79118003    -0.72930
Cu455      Cu  0.00100318  0.99610211  0.81995392     1.04560
Cu456      Cu  0.99885497  0.99613474  0.78801967     1.04330
C457        C  0.96453240  0.99628088  0.80690325     0.93380
C458        C  0.03529042  0.99571010  0.80216460     0.92520
C459        C  0.00004954  0.03171657  0.80387678     0.84660
C460        C  0.99956506  0.96055368  0.80404322     0.90930
N461        N  0.18943056  0.49077915  0.64938756    -0.27170
N462        N  0.17270091  0.48554131  0.64668385    -0.35030
C463        C  0.16943948  0.48517505  0.62883857     0.01170
C464        C  0.18479902  0.49078007  0.61989230     0.07200
C465        C  0.19730587  0.49394028  0.63334195    -0.05900
H466        H  0.15677102  0.48123656  0.62291930     0.07870
H467        H  0.21091967  0.49875405  0.63161400     0.09070
Cu468      Cu  0.15455575  0.48191158  0.66758902     0.44170
Cu469      Cu  0.19975527  0.49452116  0.67498657     0.41990
Cu470      Cu  0.16651380  0.50168660  0.71079378     0.43880
N471        N  0.13637401  0.48698925  0.68811964    -0.34550
N472        N  0.14023552  0.49557317  0.70326949    -0.28810
C473        C  0.12477026  0.49956151  0.71185786    -0.04910
C474        C  0.11053756  0.49335503  0.70145838     0.07310
C475        C  0.11852541  0.48501246  0.68681424     0.01100
H476        H  0.12391200  0.50711023  0.72432486     0.08760
H477        H  0.11192915  0.47856414  0.67557137     0.07830
N478        N  0.19422474  0.50172996  0.71474732    -0.36000
N479        N  0.20603163  0.49829311  0.70189122    -0.28180
C480        C  0.22245356  0.49685799  0.70922754    -0.03420
C481        C  0.22116986  0.49997174  0.72761936     0.05190
C482        C  0.20297732  0.50288748  0.73058584     0.03280
H483        H  0.23410821  0.49274645  0.70168848     0.08390
H484        H  0.19645799  0.50495907  0.74347076     0.07220
N485        N  0.35511044  0.49641605  0.80911008    -0.27170
N486        N  0.35927096  0.50372943  0.82483661    -0.35030
C487        C  0.37715857  0.50566255  0.82582682     0.01170
C488        C  0.38479445  0.49930564  0.81000243     0.07200
C489        C  0.37033854  0.49338046  0.79974912    -0.05900
H490        H  0.38422214  0.51051328  0.83763698     0.07870
H491        H  0.37077225  0.48637003  0.78698786     0.09070
Cu492      Cu  0.34113551  0.50808867  0.84570881     0.44170
Cu493      Cu  0.32883922  0.49042096  0.80165563     0.41990
Cu494      Cu  0.29559938  0.49621260  0.83747921     0.43880
N495        N  0.32226016  0.50529544  0.86618898    -0.34550
N496        N  0.30562402  0.49993105  0.86321532    -0.28810
C497        C  0.29745878  0.49690191  0.87913849    -0.04910
C498        C  0.30959626  0.50039086  0.89290458     0.07310
C499        C  0.32505885  0.50612082  0.88409392     0.01100
H500        H  0.28387684  0.49190310  0.88057318     0.08760
H501        H  0.33757304  0.51033111  0.89005677     0.07830
N502        N  0.28933053  0.49312256  0.81047511    -0.36000
N503        N  0.30120157  0.49013454  0.79757594    -0.28180
C504        C  0.29252223  0.48923164  0.78168611    -0.03420
C505        C  0.27428892  0.49187074  0.78465057     0.05190
C506        C  0.27291732  0.49455271  0.80311581     0.03280
H507        H  0.29911462  0.48747794  0.76879119     0.08390
H508        H  0.26119325  0.49831182  0.81072492     0.07220
O509        O  0.99682706  0.52293215  0.69600557    -0.72820
O510        O  0.99912891  0.46910301  0.69618479    -0.73800
O511        O  0.97143073  0.49492842  0.69525511    -0.62420
O512        O  0.02457832  0.49711800  0.69680250    -0.70830
O513        O  0.02463998  0.49688922  0.72660035    -0.70390
O514        O  0.97005126  0.49514636  0.72508470    -0.61640
O515        O  0.99799793  0.46873692  0.72611175    -0.74150
O516        O  0.99649165  0.52328012  0.72597330    -0.72930
Cu517      Cu  0.99803715  0.49602166  0.69512059     1.04560
Cu518      Cu  0.99728085  0.49601492  0.72707724     1.04330
C519        C  0.99611065  0.53160900  0.71084713     0.93380
C520        C  0.99874378  0.46036739  0.71105328     0.92520
C521        C  0.96218395  0.49458100  0.70969943     0.84660
C522        C  0.03326755  0.49732122  0.71165812     0.90930
O523        O  0.47160731  0.49467837  0.81959499    -0.72820
O524        O  0.52467449  0.49434959  0.81949959    -0.73800
O525        O  0.49841360  0.52143639  0.82034544    -0.62420
O526        O  0.49812307  0.46755470  0.81836985    -0.70830
O527        O  0.49746605  0.46842300  0.78840437    -0.70390
O528        O  0.49889430  0.52281229  0.79055034    -0.61640
O529        O  0.52548807  0.49469697  0.78971838    -0.74150
O530        O  0.47074501  0.49604085  0.78984939    -0.72930
Cu531      Cu  0.49817032  0.49450231  0.82038497     1.04560
Cu532      Cu  0.49811737  0.49560317  0.78849651     1.04330
C533        C  0.46254348  0.49512418  0.80505698     0.93380
C534        C  0.53367739  0.49387898  0.80493558     0.92520
C535        C  0.49893105  0.53077873  0.80583522     0.84660
C536        C  0.49783986  0.45948488  0.80315332     0.90930
N537        N  0.49984673  0.68951706  0.14803301    -0.27170
N538        N  0.50017878  0.67206597  0.14429135    -0.35030
C539        C  0.49949020  0.66985078  0.12631803     0.01170
C540        C  0.49835820  0.68667681  0.11831380     0.07200
C541        C  0.49891208  0.69888346  0.13244677    -0.05900
H542        H  0.50013048  0.65691027  0.11960423     0.07870
H543        H  0.49854698  0.71346133  0.13147475     0.09070
Cu544      Cu  0.50124288  0.65178077  0.16352416     0.44170
Cu545      Cu  0.50059388  0.69944839  0.17425193     0.41990
Cu546      Cu  0.50168328  0.66509769  0.20992476     0.43880
N547        N  0.50143788  0.63352358  0.18471698    -0.34550
N548        N  0.50169002  0.63838574  0.20187626    -0.28810
C549        C  0.50159047  0.62348770  0.21231354    -0.04910
C550        C  0.50130891  0.60861143  0.20109631     0.07310
C551        C  0.50109850  0.61541146  0.18372945     0.01100
H552        H  0.50151614  0.62350509  0.22692193     0.08760
H553        H  0.50065738  0.60776144  0.17130077     0.07830
N554        N  0.50150719  0.69262818  0.21453557    -0.36000
N555        N  0.50118017  0.70511713  0.20172560    -0.28180
C556        C  0.50119166  0.72152830  0.20950950    -0.03420
C557        C  0.50162792  0.71914150  0.22800363     0.05190
C558        C  0.50170616  0.70072913  0.23075261     0.03280
H559        H  0.50087066  0.73422087  0.20225699     0.08390
H560        H  0.50191071  0.69372140  0.24358298     0.07220
N561        N  0.50059372  0.80120298  0.36387246    -0.27170
N562        N  0.49995901  0.81853877  0.36803963    -0.35030
C563        C  0.50071921  0.82032556  0.38605561     0.01170
C564        C  0.50225505  0.80332510  0.39362342     0.07200
C565        C  0.50183872  0.79146610  0.37920206    -0.05900
H566        H  0.49999660  0.83309262  0.39308088     0.07870
H567        H  0.50265879  0.77688848  0.37979349     0.09070
Cu568      Cu  0.49880416  0.83915534  0.34919693     0.44170
Cu569      Cu  0.50011131  0.79205416  0.33741664     0.41990
Cu570      Cu  0.50017360  0.82718980  0.30229664     0.43880
N571        N  0.49841654  0.85793025  0.32849190    -0.34550
N572        N  0.49898669  0.85366398  0.31118463    -0.28810
C573        C  0.49829223  0.86891576  0.30127726    -0.04910
C574        C  0.49696815  0.88338435  0.31298612     0.07310
C575        C  0.49736900  0.87595276  0.33010156     0.01100
H576        H  0.49848682  0.86941624  0.28667676     0.08760
H577        H  0.49710465  0.88309784  0.34282537     0.07830
N578        N  0.50007347  0.79967898  0.29723856    -0.36000
N579        N  0.49989313  0.78699463  0.30986381    -0.28180
C580        C  0.49962033  0.77070033  0.30186549    -0.03420
C581        C  0.49953309  0.77333332  0.28341363     0.05190
C582        C  0.49994798  0.79178784  0.28090714     0.03280
H583        H  0.49953293  0.75791115  0.30895479     0.08390
H584        H  0.50009045  0.79896109  0.26816779     0.07220
O585        O  0.50024086  0.71439217  0.97913664    -0.72820
O586        O  0.50097512  0.71245940  0.03333540    -0.73800
O587        O  0.52806758  0.71326907  0.00606373    -0.62420
O588        O  0.47317711  0.71255072  0.00685155    -0.70830
O589        O  0.47461512  0.68287949  0.00495535    -0.70390
O590        O  0.52728833  0.68350143  0.00512285    -0.61640
O591        O  0.50068442  0.68251864  0.03216049    -0.74150
O592        O  0.50098846  0.68441358  0.97811425    -0.72930
Cu593      Cu  0.50062317  0.71432578  0.00631805     1.04560
Cu594      Cu  0.50093502  0.68240200  0.00502621     1.04330
C595        C  0.50052068  0.69969811  0.97014974     0.93380
C596        C  0.50074278  0.69716112  0.04127674     0.92520
C597        C  0.53629060  0.69804435  0.00586214     0.84660
C598        C  0.46529913  0.69711782  0.00646500     0.90930
N599        N  0.14228400  0.79994377  0.00213956    -0.27170
N600        N  0.13861854  0.81668312  0.99737675    -0.35030
C601        C  0.12071990  0.81849169  0.99633366     0.01170
C602        C  0.11257332  0.80213279  0.00098767     0.07200
C603        C  0.12691849  0.79075748  0.00469980    -0.05900
H604        H  0.11410573  0.83108424  0.99309457     0.07870
H605        H  0.12658833  0.77714715  0.00978411     0.09070
Cu606      Cu  0.15828259  0.83671170  0.99590095     0.44170
Cu607      Cu  0.16808689  0.79102807  0.00573433     0.41990
Cu608      Cu  0.20216423  0.82504552  0.01464390     0.43880
N609        N  0.17885726  0.85521459  0.00082101    -0.34550
N610        N  0.19432262  0.85123717  0.00861361    -0.28810
C611        C  0.20356045  0.86660826  0.01161223    -0.04910
C612        C  0.19356271  0.88105027  0.00514215     0.07310
C613        C  0.17798107  0.87316793  0.99846843     0.01100
H614        H  0.21614453  0.86707224  0.01878491     0.08760
H615        H  0.16645136  0.88010970  0.99292289     0.07830
N616        N  0.20718867  0.79754611  0.01331876    -0.36000
N617        N  0.19488248  0.78550833  0.00889324    -0.28180
C618        C  0.20268841  0.76940417  0.00647696    -0.03420
C619        C  0.22084390  0.77107427  0.01011762     0.05190
C620        C  0.22317087  0.78923124  0.01428198     0.03280
H621        H  0.19552391  0.75775982  0.00163171     0.08390
H622        H  0.23568047  0.79605699  0.01723387     0.07220
N623        N  0.30564524  0.63997976  0.99935404    -0.27170
N624        N  0.32217967  0.63561418  0.00392243    -0.35030
C625        C  0.32321733  0.61766255  0.00582948     0.01170
C626        C  0.30657519  0.61003078  0.00200413     0.07200
C627        C  0.29575334  0.62479142  0.99783597    -0.05900
H628        H  0.33539780  0.61063234  0.00953998     0.07870
H629        H  0.28192774  0.62477777  0.99360334     0.09070
Cu630      Cu  0.34290457  0.65409834  0.00629428     0.44170
Cu631      Cu  0.29791615  0.66672967  0.99689691     0.41990
Cu632      Cu  0.33140356  0.69968064  0.01470685     0.43880
N633        N  0.36176012  0.67451181  0.00864471    -0.34550
N634        N  0.35770684  0.69125285  0.01299891    -0.28810
C635        C  0.37290999  0.70102102  0.01432885    -0.04910
C636        C  0.38740991  0.68992301  0.01022730     0.07310
C637        C  0.37957231  0.67321411  0.00666258     0.01100
H638        H  0.37304912  0.71501598  0.01821014     0.08760
H639        H  0.38632833  0.66085446  0.00290509     0.07830
N640        N  0.30498252  0.70538267  0.00859331    -0.36000
N641        N  0.29342280  0.69401549  0.00118015    -0.28180
C642        C  0.27781092  0.70264020  0.99853763    -0.03420
C643        C  0.27960168  0.72026276  0.00450834     0.05190
C644        C  0.29695335  0.72140841  0.01103250     0.03280
H645        H  0.26581758  0.69635638  0.99318598     0.08390
H646        H  0.30320084  0.73264155  0.01783476     0.07220
N647        N  0.99841618  0.80155606  0.14827698    -0.27170
N648        N  0.99765699  0.81891090  0.14409388    -0.35030
C649        C  0.99711564  0.82065126  0.12604194     0.01170
C650        C  0.99747458  0.80359152  0.11855550     0.07200
C651        C  0.99844737  0.79177039  0.13296847    -0.05900
H652        H  0.99652035  0.83339335  0.11889294     0.07870
H653        H  0.99899797  0.77718129  0.13239209     0.09070
Cu654      Cu  0.99737531  0.83951258  0.16301470     0.44170
Cu655      Cu  0.99901866  0.79220801  0.17464587     0.41990
Cu656      Cu  0.99696020  0.82656099  0.20992794     0.43880
N657        N  0.99703955  0.85789377  0.18409927    -0.34550
N658        N  0.99670003  0.85320628  0.20132950    -0.28810
C659        C  0.99673524  0.86823028  0.21154559    -0.04910
C660        C  0.99700694  0.88303045  0.20013889     0.07310
C661        C  0.99737064  0.87600160  0.18287449     0.01100
H662        H  0.99700248  0.86833257  0.22614885     0.08760
H663        H  0.99795984  0.88350996  0.17034058     0.07830
N664        N  0.99803360  0.79901590  0.21483430    -0.36000
N665        N  0.99889508  0.78658106  0.20205827    -0.28180
C666        C  0.99925306  0.77015111  0.20980604    -0.03420
C667        C  0.99881066  0.77238709  0.22831788     0.05190
C668        C  0.99780356  0.79081111  0.23103809     0.03280
H669        H  0.99929562  0.75753973  0.20245729     0.08390
H670        H  0.99685573  0.79773925  0.24385458     0.07220
N671        N  0.99573228  0.68977232  0.36417295    -0.27170
N672        N  0.99687125  0.67252937  0.36871842    -0.35030
C673        C  0.99825701  0.67127574  0.38678523     0.01170
C674        C  0.99813685  0.68854888  0.39387884     0.07200
C675        C  0.99629823  0.69994060  0.37921054    -0.05900
H676        H  0.99918577  0.65871339  0.39420749     0.07870
H677        H  0.99564200  0.71453589  0.37942466     0.09070
Cu678      Cu  0.99667633  0.65149928  0.35011279     0.44170
Cu679      Cu  0.99406581  0.69864563  0.33770814     0.41990
Cu680      Cu  0.99605469  0.66415003  0.30289244     0.43880
N681        N  0.99656300  0.63297060  0.32901589    -0.34550
N682        N  0.99651425  0.63759814  0.31175401    -0.28810
C683        C  0.99637875  0.62255081  0.30157306    -0.04910
C684        C  0.99617720  0.60779867  0.31300202     0.07310
C685        C  0.99640548  0.61484361  0.33027337     0.01100
H686        H  0.99620546  0.62237769  0.28696644     0.08760
H687        H  0.99637452  0.60734385  0.34282505     0.07830
N688        N  0.99461401  0.69160168  0.29761694    -0.36000
N689        N  0.99372562  0.70412864  0.31029166    -0.28180
C690        C  0.99317804  0.72049271  0.30242313    -0.03420
C691        C  0.99351876  0.71811617  0.28392678     0.05190
C692        C  0.99466977  0.69967570  0.28134441     0.03280
H693        H  0.99314370  0.73316007  0.30967546     0.08390
H694        H  0.99564881  0.69265625  0.26858026     0.07220
O695        O  0.97278792  0.81106817  0.00704671    -0.72820
O696        O  0.02536286  0.81100889  0.00545308    -0.73800
O697        O  0.99821002  0.81098159  0.97916989    -0.62420
O698        O  0.99972269  0.81036687  0.03331052    -0.70830
O699        O  0.99919256  0.78037163  0.03305123    -0.70390
O700        O  0.99870715  0.78103782  0.97880686    -0.61640
O701        O  0.02641775  0.78127230  0.00576520    -0.74150
O702        O  0.97136870  0.78138248  0.00627670    -0.72930
Cu703      Cu  0.99904648  0.81177318  0.00624624     1.04560
Cu704      Cu  0.99892890  0.77985415  0.00594870     1.04330
C705        C  0.96342680  0.79677112  0.00682253     0.93380
C706        C  0.03453075  0.79659770  0.00564291     0.92520
C707        C  0.99813845  0.79611911  0.97044449     0.84660
C708        C  0.99953009  0.79526729  0.04167307     0.90930
N709        N  0.18878416  0.63940864  0.50253436    -0.27170
N710        N  0.17162304  0.63695665  0.50607096    -0.35030
C711        C  0.16813813  0.61926256  0.50734838     0.01170
C712        C  0.18368136  0.60973808  0.50356450     0.07200
C713        C  0.19664852  0.62309248  0.50091262    -0.05900
H714        H  0.15515531  0.61400728  0.51096319     0.07870
H715        H  0.21073632  0.62109721  0.49800135     0.09070
Cu716      Cu  0.15331006  0.65758749  0.50764081     0.44170
Cu717      Cu  0.19953875  0.66538065  0.50178024     0.41990
Cu718      Cu  0.16712680  0.70193954  0.51645591     0.43880
N719        N  0.13562895  0.67878413  0.50897362    -0.34550
N720        N  0.14021696  0.69532217  0.51357922    -0.28810
C721        C  0.12522550  0.70545202  0.51496862    -0.04910
C722        C  0.11045505  0.69466337  0.51070346     0.07310
C723        C  0.11784853  0.67791564  0.50684692     0.01100
H724        H  0.12529270  0.71932950  0.51931642     0.08760
H725        H  0.11074943  0.66568653  0.50322399     0.07830
N726        N  0.19450571  0.70501209  0.51206964    -0.36000
N727        N  0.20567466  0.69257000  0.50586671    -0.28180
C728        C  0.22182710  0.70025474  0.50318070    -0.03420
C729        C  0.22081834  0.71837024  0.50777014     0.05190
C730        C  0.20336308  0.72073069  0.51370676     0.03280
H731        H  0.23348258  0.69315897  0.49814688     0.08390
H732        H  0.19736836  0.73281341  0.51907664     0.07220
N733        N  0.35798603  0.80196950  0.50157824    -0.27170
N734        N  0.36084805  0.81899009  0.50589967    -0.35030
C735        C  0.37854615  0.82194831  0.50727290     0.01170
C736        C  0.38757219  0.80620795  0.50282329     0.07200
C737        C  0.37397014  0.79368883  0.49961366    -0.05900
H738        H  0.38416491  0.83468684  0.51140179     0.07870
H739        H  0.37557751  0.77961601  0.49606038     0.09070
Cu740      Cu  0.34066665  0.83781541  0.50834905     0.44170
Cu741      Cu  0.33204456  0.79166392  0.50019383     0.41990
Cu742      Cu  0.29578167  0.82408450  0.51461333     0.43880
N743        N  0.31962863  0.85579417  0.50965274    -0.34550
N744        N  0.30290316  0.85118085  0.51312428    -0.28810
C745        C  0.29287757  0.86630961  0.51442479    -0.04910
C746        C  0.30391284  0.88126012  0.51130257     0.07310
C747        C  0.32071761  0.87374866  0.50817596     0.01100
H748        H  0.27881967  0.86615066  0.51779911     0.08760
H749        H  0.33309038  0.88084366  0.50526423     0.07830
N750        N  0.29273389  0.79645641  0.51053606    -0.36000
N751        N  0.30516680  0.78522552  0.50448297    -0.28180
C752        C  0.29772791  0.76883130  0.50208800    -0.03420
C753        C  0.27983942  0.76959572  0.50722435     0.05190
C754        C  0.27722910  0.78738785  0.51236016     0.03280
H755        H  0.30487061  0.75753051  0.49644492     0.08390
H756        H  0.26478588  0.79343966  0.51682396     0.07220
O757        O  0.99786242  0.68647932  0.47890614    -0.72820
O758        O  0.99592454  0.68627781  0.53277533    -0.73800
O759        O  0.97042475  0.68667476  0.50489511    -0.62420
O760        O  0.02338693  0.68608607  0.50675835    -0.70830
O761        O  0.02471702  0.71584170  0.50697804    -0.70390
O762        O  0.97017020  0.71656898  0.50520308    -0.61640
O763        O  0.99676073  0.71624966  0.53325600    -0.74150
O764        O  0.99809987  0.71647566  0.47870787    -0.72930
Cu765      Cu  0.99689847  0.68544077  0.50581527     1.04560
Cu766      Cu  0.99745699  0.71742925  0.50600810     1.04330
C767        C  0.99810263  0.70140815  0.47029827     0.93380
C768        C  0.99615408  0.70110147  0.54153516     0.92520
C769        C  0.96173284  0.70149915  0.50476820     0.84660
C770        C  0.03264157  0.70049728  0.50757242     0.90930
O771        O  0.47290933  0.77898104  0.50532095    -0.72820
O772        O  0.52742332  0.77814413  0.50755032    -0.73800
O773        O  0.49911824  0.77922526  0.53368870    -0.62420
O774        O  0.50109424  0.77758984  0.47925846    -0.70830
O775        O  0.50205564  0.80754352  0.47871723    -0.70390
O776        O  0.49958870  0.80909487  0.53245556    -0.61640
O777        O  0.52738946  0.80804319  0.50684359    -0.74150
O778        O  0.47417443  0.80876435  0.50437509    -0.72930
Cu779      Cu  0.50012413  0.77736042  0.50649434     1.04560
Cu780      Cu  0.50081068  0.80931045  0.50556635     1.04330
C781        C  0.46491629  0.79423740  0.50439338     0.93380
C782        C  0.53593970  0.79319438  0.50777099     0.92520
C783        C  0.49906603  0.79451050  0.54167413     0.84660
C784        C  0.50185608  0.79242949  0.47045861     0.90930
N785        N  0.50053930  0.18989356  0.36416348    -0.27170
N786        N  0.49991396  0.17259821  0.36857593    -0.35030
C787        C  0.49889526  0.17110698  0.38662112     0.01170
C788        C  0.49868631  0.18828918  0.39385170     0.07200
C789        C  0.49997317  0.19990305  0.37929930    -0.05900
H790        H  0.49835342  0.15844775  0.39392125     0.07870
H791        H  0.50017539  0.21450982  0.37965389     0.09070
Cu792      Cu  0.50007086  0.15183077  0.34989837     0.44170
Cu793      Cu  0.50126000  0.19883089  0.33772586     0.41990
Cu794      Cu  0.49813404  0.16415990  0.30279292     0.43880
N795        N  0.50022557  0.13326921  0.32902783    -0.34550
N796        N  0.49936049  0.13767338  0.31174306    -0.28810
C797        C  0.49989247  0.12250692  0.30175506    -0.04910
C798        C  0.50144166  0.10795668  0.31336516     0.07310
C799        C  0.50136708  0.11523137  0.33052295     0.01100
H800        H  0.49941660  0.12212187  0.28715937     0.08760
H801        H  0.50195286  0.10795748  0.34319062     0.07830
N802        N  0.49859030  0.19167936  0.29769882    -0.36000
N803        N  0.50002179  0.20419611  0.31035446    -0.28180
C804        C  0.50042776  0.22056573  0.30250103    -0.03420
C805        C  0.49900528  0.21819273  0.28409833     0.05190
C806        C  0.49800141  0.19977485  0.28144926     0.03280
H807        H  0.50173102  0.23322906  0.30965650     0.08390
H808        H  0.49716819  0.19276431  0.26866878     0.07220
N809        N  0.49863171  0.29930126  0.14869866    -0.27170
N810        N  0.49590378  0.31635311  0.14416146    -0.35030
C811        C  0.49545442  0.31767458  0.12606540     0.01170
C812        C  0.49816377  0.30066570  0.11894670     0.07200
C813        C  0.50002782  0.28928807  0.13361926    -0.05900
H814        H  0.49362862  0.33013380  0.11863794     0.07870
H815        H  0.50233076  0.27486597  0.13337552     0.09070
Cu816      Cu  0.49421286  0.33714993  0.16279827     0.44170
Cu817      Cu  0.50079520  0.29082407  0.17520776     0.41990
Cu818      Cu  0.50611157  0.32638729  0.20888429     0.43880
N819        N  0.49722228  0.35628438  0.18298667    -0.34550
N820        N  0.50269890  0.35256335  0.19951894    -0.28810
C821        C  0.50504964  0.36811692  0.20861026    -0.04910
C822        C  0.50045099  0.38247102  0.19737770     0.07310
C823        C  0.49559124  0.37423607  0.18123438     0.01100
H824        H  0.51025381  0.36862128  0.22215217     0.08760
H825        H  0.49145982  0.38084592  0.16887840     0.07830
N826        N  0.50514266  0.29903144  0.21488042    -0.36000
N827        N  0.50291522  0.28620404  0.20265804    -0.28180
C828        C  0.50195759  0.27011554  0.21102460    -0.03420
C829        C  0.50383026  0.27297357  0.22931676     0.05190
C830        C  0.50570322  0.29141036  0.23136664     0.03280
H831        H  0.49993178  0.25731396  0.20429382     0.08390
H832        H  0.50703762  0.29876936  0.24390607     0.07220
O833        O  0.49796809  0.96859017  0.31729321    -0.72820
O834        O  0.50001963  0.02260889  0.31750752    -0.73800
O835        O  0.47264837  0.99648909  0.31796237    -0.62420
O836        O  0.52536442  0.99461137  0.31752469    -0.70830
O837        O  0.52647795  0.99505836  0.28778239    -0.70390
O838        O  0.47138126  0.99683705  0.28820138    -0.61640
O839        O  0.49957804  0.02294259  0.28753238    -0.74150
O840        O  0.49820342  0.96871083  0.28731922    -0.72930
Cu841      Cu  0.49901253  0.99555247  0.31849067     1.04560
Cu842      Cu  0.49890005  0.99585799  0.28655038     1.04330
C843        C  0.49790238  0.96014162  0.30228277     0.93380
C844        C  0.49994227  0.03128282  0.30258349     0.92520
C845        C  0.46342854  0.99740616  0.30358531     0.84660
C846        C  0.53460184  0.99456762  0.30305252     0.90930
O847        O  0.49891084  0.27696511  0.97934960    -0.72820
O848        O  0.49906875  0.27615128  0.03363284    -0.73800
O849        O  0.47157367  0.27760868  0.00660307    -0.62420
O850        O  0.52643449  0.27623000  0.00615823    -0.70830
O851        O  0.52632716  0.30607939  0.00718258    -0.70390
O852        O  0.47321664  0.30737110  0.00650977    -0.61640
O853        O  0.49938135  0.30616108  0.03388009    -0.74150
O854        O  0.50025144  0.30694074  0.97992732    -0.72930
Cu855      Cu  0.49896660  0.27560293  0.00646432     1.04560
Cu856      Cu  0.49981193  0.30758308  0.00692427     1.04330
C857        C  0.49984239  0.29212195  0.97116220     0.93380
C858        C  0.49903551  0.29107957  0.04223372     0.92520
C859        C  0.46373467  0.29300514  0.00650038     0.84660
C860        C  0.53498975  0.29126372  0.00625691     0.90930
N861        N  0.19164208  0.35173786  0.50576619    -0.27170
N862        N  0.17679429  0.35460271  0.51505758    -0.35030
C863        C  0.17488787  0.37244202  0.51760232     0.01170
C864        C  0.18920325  0.38137430  0.50952428     0.07200
C865        C  0.19947034  0.36769754  0.50197600    -0.05900
H866        H  0.16347349  0.37855315  0.52423468     0.07870
H867        H  0.21120154  0.36905151  0.49356427     0.09070
Cu868      Cu  0.15818147  0.33454531  0.52109771     0.44170
Cu869      Cu  0.20030693  0.32614382  0.49881145     0.41990
Cu870      Cu  0.16742881  0.29007659  0.50448667     0.43880
N871        N  0.13864732  0.31476807  0.51784153    -0.34550
N872        N  0.14174598  0.29892705  0.51031978    -0.28810
C873        C  0.12595451  0.29079737  0.50679227    -0.04910
C874        C  0.11217865  0.30215259  0.51222806     0.07310
C875        C  0.12086016  0.31697462  0.51967712     0.01100
H876        H  0.12459523  0.27794079  0.49999787     0.08760
H877        H  0.11487480  0.32887400  0.52544260     0.07830
N878        N  0.19477006  0.28590527  0.50175631    -0.36000
N879        N  0.20663660  0.29894542  0.49916850    -0.28180
C880        C  0.22317841  0.29173905  0.49858498    -0.03420
C881        C  0.22170222  0.27330228  0.50135648     0.05190
C882        C  0.20346926  0.27008323  0.50304610     0.03280
H883        H  0.23522706  0.29945661  0.49610629     0.08390
H884        H  0.19701396  0.25718141  0.50535236     0.07220
N885        N  0.35605362  0.19203847  0.50702761    -0.27170
N886        N  0.35989580  0.17685736  0.51556098    -0.35030
C887        C  0.37775594  0.17568757  0.51751146     0.01170
C888        C  0.38581276  0.19073351  0.50966822     0.07200
C889        C  0.37145203  0.20075824  0.50304192    -0.05900
H890        H  0.38445987  0.16425706  0.52362592     0.07870
H891        H  0.37190778  0.21300005  0.49518491     0.09070
Cu892      Cu  0.34133207  0.15662516  0.52127755     0.44170
Cu893      Cu  0.32991059  0.19985052  0.50125651     0.41990
Cu894      Cu  0.29643226  0.16423199  0.50682773     0.43880
N895        N  0.32263512  0.13597821  0.51818206    -0.34550
N896        N  0.30643008  0.13865776  0.51153936    -0.28810
C897        C  0.29869556  0.12258308  0.50817913    -0.04910
C898        C  0.31064390  0.10896954  0.51285169     0.07310
C899        C  0.32550665  0.11812664  0.51962017     0.01100
H900        H  0.28556770  0.12094892  0.50214144     0.08760
H901        H  0.33774989  0.11250839  0.52487825     0.07830
N902        N  0.29035351  0.19127473  0.50371199    -0.36000
N903        N  0.30236824  0.20417724  0.50111476    -0.28180
C904        C  0.29379669  0.22010011  0.49983783    -0.03420
C905        C  0.27552073  0.21704993  0.50159176     0.05190
C906        C  0.27390556  0.19863733  0.50436440     0.03280
H907        H  0.30039673  0.23300549  0.49802572     0.08390
H908        H  0.26187653  0.19109687  0.50740245     0.07220
O909        O  0.99927477  0.27651109  0.53300610    -0.72820
O910        O  0.99897280  0.27649052  0.47853901    -0.73800
O911        O  0.02653684  0.27625079  0.50562243    -0.62420
O912        O  0.97190169  0.27728627  0.50610470    -0.70830
O913        O  0.97323199  0.30707599  0.50530378    -0.70390
O914        O  0.02618463  0.30605262  0.50612072    -0.61640
O915        O  0.00016983  0.30645821  0.47874475    -0.74150
O916        O  0.99929083  0.30651829  0.53267596    -0.72930
Cu917      Cu  0.99915624  0.27548987  0.50579830     1.04560
Cu918      Cu  0.99974178  0.30746558  0.50569491     1.04330
C919        C  0.99917364  0.29160578  0.54133037     0.93380
C920        C  0.99973537  0.29155900  0.47013269     0.92520
C921        C  0.03501090  0.29130753  0.50589858     0.84660
C922        C  0.96398230  0.29265166  0.50601999     0.90930
O923        O  0.31294581  0.96880885  0.50675020    -0.72820
O924        O  0.31339310  0.02215817  0.50674018    -0.73800
O925        O  0.31336722  0.99545118  0.53328484    -0.62420
O926        O  0.31319267  0.99549646  0.48015884    -0.70830
O927        O  0.28366082  0.99405480  0.47921874    -0.70390
O928        O  0.28385961  0.99698769  0.53448255    -0.61640
O929        O  0.28381917  0.02307243  0.50563024    -0.74150
O930        O  0.28341859  0.96804816  0.50842002    -0.72930
Cu931      Cu  0.31405656  0.99548000  0.50669282     1.04560
Cu932      Cu  0.28247976  0.99556156  0.50688628     1.04330
C933        C  0.29851101  0.95976004  0.50826791     0.93380
C934        C  0.29892285  0.03132713  0.50619660     0.92520
C935        C  0.29909968  0.99672393  0.54256347     0.84660
C936        C  0.29884799  0.99410492  0.47102329     0.90930
N937        N  0.14270642  0.18996976  0.00806345    -0.27170
N938        N  0.13998763  0.17334041  0.01389501    -0.35030
C939        C  0.12225537  0.17048743  0.01553366     0.01170
C940        C  0.11305368  0.18576470  0.00968782     0.07200
C941        C  0.12666814  0.19795984  0.00538226    -0.05900
H942        H  0.11676273  0.15794569  0.02041141     0.07870
H943        H  0.12503863  0.21151073  0.00015178     0.09070
Cu944      Cu  0.16018834  0.15402129  0.01606861     0.44170
Cu945      Cu  0.16842455  0.20022882  0.00394328     0.41990
Cu946      Cu  0.20238948  0.16538437  0.99566148     0.43880
N947        N  0.18028826  0.13521425  0.01074732    -0.34550
N948        N  0.19536978  0.13916935  0.00223954    -0.28810
C949        C  0.20454086  0.12383716  0.99901781    -0.04910
C950        C  0.19485605  0.10943989  0.00606728     0.07310
C951        C  0.17952144  0.11727428  0.01328743     0.01100
H952        H  0.21678046  0.12331641  0.99125418     0.08760
H953        H  0.16820059  0.11029224  0.01924263     0.07830
N954        N  0.20787260  0.19267152  0.99773646    -0.36000
N955        N  0.19587889  0.20518206  0.00172315    -0.28180
C956        C  0.20451786  0.22087199  0.00464306    -0.03420
C957        C  0.22284022  0.21811957  0.00249214     0.05190
C958        C  0.22432761  0.20010533  0.99772264     0.03280
H959        H  0.19796742  0.23332165  0.00848713     0.08390
H960        H  0.23632653  0.19269155  0.99450348     0.07220
N961        N  0.30405693  0.35332182  0.00757194    -0.27170
N962        N  0.31952276  0.35767495  0.99997626    -0.35030
C963        C  0.31998902  0.37566110  0.99750370     0.01170
C964        C  0.30393875  0.38290456  0.00355839     0.07200
C965        C  0.29423689  0.36835198  0.01004807    -0.05900
H966        H  0.33146972  0.38305084  0.99241441     0.07870
H967        H  0.28145294  0.36869791  0.01695048     0.09070
Cu968      Cu  0.34001581  0.33912157  0.99537995     0.44170
Cu969      Cu  0.29739964  0.32720157  0.01460750     0.41990
Cu970      Cu  0.33108040  0.29247355  0.00708838     0.43880
N971        N  0.35982500  0.31940667  0.99750822    -0.34550
N972        N  0.35681714  0.30271099  0.00303986    -0.28810
C973        C  0.37270441  0.29445160  0.00573676    -0.04910
C974        C  0.38649619  0.30652071  0.00177720     0.07310
C975        C  0.37761883  0.32203347  0.99609663     0.01100
H976        H  0.37410951  0.28080768  0.01078943     0.08760
H977        H  0.38340158  0.33455225  0.99153422     0.07830
N978        N  0.30376368  0.28729817  0.01018476    -0.36000
N979        N  0.29186941  0.29992683  0.01404051    -0.28180
C980        C  0.27543202  0.29252199  0.01477271    -0.03420
C981        C  0.27678814  0.27436650  0.01054427     0.05190
C982        C  0.29505923  0.27151627  0.00802900     0.03280
H983        H  0.26352577  0.30009465  0.01794848     0.08390
H984        H  0.30149571  0.25896330  0.00432997     0.07220
N985        N  0.14250736  0.99366751  0.20346085    -0.27170
N986        N  0.13821411  0.98770704  0.18725731    -0.35030
C987        C  0.12025512  0.98663701  0.18607796     0.01170
C988        C  0.11275894  0.99228055  0.20232048     0.07200
C989        C  0.12743064  0.99679306  0.21296853    -0.05900
H990        H  0.11309810  0.98284309  0.17394363     0.07870
H991        H  0.12737965  0.00293778  0.22614905     0.09070
Cu992      Cu  0.15702688  0.98464893  0.16669572     0.44170
Cu993      Cu  0.16880603  0.99826014  0.21081526     0.41990
Cu994      Cu  0.20070818  0.00557199  0.17399663     0.43880
N995        N  0.17590672  0.98928107  0.14647106    -0.34550
N996        N  0.19103578  0.99832630  0.14875127    -0.28810
C997        C  0.19870147  0.00112102  0.13251473    -0.04910
C998        C  0.18783406  0.99357181  0.11927552     0.07310
C999        C  0.17378095  0.98574274  0.12883113     0.01100
H1000       H  0.21110087  0.00847181  0.13046665     0.08760
H1001       H  0.16260028  0.97818353  0.12358420     0.07830
N1002       N  0.20769198  0.00458892  0.20109513    -0.36000
N1003       N  0.19617078  0.00093872  0.21414681    -0.28180
C1004       C  0.20517834  0.99874278  0.22964596    -0.03420
C1005       C  0.22336202  0.00118904  0.22642108     0.05190
C1006       C  0.22434734  0.00517864  0.20809295     0.03280
H1007       H  0.19889486  0.99517242  0.24233295     0.08390
H1008       H  0.23606694  0.00819354  0.20015179     0.07220
N1009       N  0.30458108  0.98826106  0.36280268    -0.27170
N1010       N  0.32105472  0.99333093  0.36694656    -0.35030
C1011       C  0.32213004  0.99565418  0.38486026     0.01170
C1012       C  0.30558455  0.99166952  0.39263167     0.07200
C1013       C  0.29479814  0.98689419  0.37806105    -0.05900
H1014       H  0.33427773  0.99965050  0.39180819     0.07870
H1015       H  0.28109539  0.98224030  0.37830160     0.09070
Cu1016     Cu  0.34170825  0.99575519  0.34823486     0.44170
Cu1017     Cu  0.29646893  0.98483315  0.33628195     0.41990
Cu1018     Cu  0.32924607  0.00101733  0.30221973     0.43880
N1019       N  0.36027493  0.99768631  0.32737874    -0.34550
N1020       N  0.35577376  0.00057429  0.31040623    -0.28810
C1021       C  0.37076517  0.00193488  0.30031736    -0.04910
C1022       C  0.38560559  0.99939781  0.31144192     0.07310
C1023       C  0.37821736  0.99676791  0.32851943     0.01100
H1024       H  0.37056900  0.00488566  0.28608190     0.08760
H1025       H  0.38540299  0.99440481  0.34099742     0.07830
N1026       N  0.30231346  0.99613582  0.29739930    -0.36000
N1027       N  0.29087567  0.98927608  0.30923164    -0.28180
C1028       C  0.27476215  0.98737982  0.30129986    -0.03420
C1029       C  0.27595476  0.99379770  0.28375616     0.05190
C1030       C  0.29370046  0.99897841  0.28174152     0.03280
H1031       H  0.26323327  0.98164843  0.30797956     0.08390
H1032       H  0.29988228  0.00463874  0.26977772     0.07220
N1033       N  0.99856909  0.19131967  0.14785320    -0.27170
N1034       N  0.00076224  0.17418620  0.14339917    -0.35030
C1035       C  0.00207248  0.17288447  0.12536686     0.01170
C1036       C  0.00078166  0.19003306  0.11814951     0.07200
C1037       C  0.99838841  0.20142663  0.13271514    -0.05900
H1038       H  0.00373209  0.16036289  0.11804497     0.07870
H1039       H  0.99675726  0.21594043  0.13235531     0.09070
Cu1040     Cu  0.00147637  0.15331336  0.16196006     0.44170
Cu1041     Cu  0.99627183  0.19969537  0.17443601     0.41990
Cu1042     Cu  0.99712647  0.16420561  0.20919918     0.43880
N1043       N  0.99977509  0.13410500  0.18217955    -0.34550
N1044       N  0.99791639  0.13789362  0.19950928    -0.28810
C1045       C  0.99644948  0.12231232  0.20882321    -0.04910
C1046       C  0.99717075  0.10812006  0.19667871     0.07310
C1047       C  0.99961737  0.11611598  0.17998638     0.01100
H1048       H  0.99473149  0.12138184  0.22330215     0.08760
H1049       H  0.00144645  0.10942603  0.16716236     0.07830
N1050       N  0.99605703  0.19173276  0.21457824    -0.36000
N1051       N  0.99550893  0.20445504  0.20200278    -0.28180
C1052       C  0.99481465  0.22071049  0.21002638    -0.03420
C1053       C  0.99482369  0.21808268  0.22847408     0.05190
C1054       C  0.99579341  0.19961316  0.23093774     0.03280
H1055       H  0.99455280  0.23349870  0.20294019     0.08390
H1056       H  0.99626513  0.19243419  0.24366524     0.07220
N1057       N  0.99597249  0.30115759  0.36360420    -0.27170
N1058       N  0.99654001  0.31840396  0.36818386    -0.35030
C1059       C  0.99695014  0.31963268  0.38629939     0.01170
C1060       C  0.99639002  0.30235557  0.39340981     0.07200
C1061       C  0.99592839  0.29095499  0.37866381    -0.05900
H1062       H  0.99765451  0.33216824  0.39375644     0.07870
H1063       H  0.99592173  0.27634442  0.37882907     0.09070
Cu1064     Cu  0.99684188  0.33942051  0.34951232     0.44170
Cu1065     Cu  0.99579359  0.29238597  0.33707032     0.41990
Cu1066     Cu  0.99449633  0.32704440  0.30219939     0.43880
N1067       N  0.99677468  0.35801809  0.32842766    -0.34550
N1068       N  0.99569064  0.35355390  0.31117121    -0.28810
C1069       C  0.99608174  0.36868954  0.30106202    -0.04910
C1070       C  0.99771392  0.38331046  0.31251831     0.07310
C1071       C  0.99794118  0.37609459  0.32974500     0.01100
H1072       H  0.99550015  0.36900229  0.28646741     0.08760
H1073       H  0.99888586  0.38344516  0.34232504     0.07830
N1074       N  0.99519370  0.29953326  0.29693339    -0.36000
N1075       N  0.99589251  0.28697369  0.30964386    -0.28180
C1076       C  0.99662338  0.27062366  0.30181220    -0.03420
C1077       C  0.99648354  0.27304672  0.28333000     0.05190
C1078       C  0.99538977  0.29148125  0.28066336     0.03280
H1079       H  0.99708358  0.25792444  0.30904587     0.08390
H1080       H  0.99487676  0.29852198  0.26786059     0.07220
O1081       O  0.02685536  0.99619484  0.22337225    -0.72820
O1082       O  0.97204847  0.99570281  0.22316553    -0.73800
O1083       O  0.99964766  0.96854732  0.22416684    -0.62420
O1084       O  0.99920437  0.02292477  0.22308398    -0.70830
O1085       O  0.99888098  0.02211461  0.19316085    -0.70390
O1086       O  0.00029011  0.96817421  0.19419588    -0.61640
O1087       O  0.97314663  0.99452364  0.19338157    -0.74150
O1088       O  0.02609649  0.99573197  0.19359028    -0.72930
Cu1089     Cu  0.99944601  0.99580152  0.22459143     1.04560
Cu1090     Cu  0.99961755  0.99508413  0.19264914     1.04330
C1091       C  0.03508718  0.99642293  0.20815318     0.93380
C1092       C  0.96397977  0.99538031  0.20788990     0.92520
C1093       C  0.00023959  0.95985765  0.20929215     0.84660
C1094       C  0.99881052  0.03107464  0.20788881     0.90930
O1095       O  0.21504489  0.02276584  0.00426617    -0.72820
O1096       O  0.21456572  0.96760035  0.00670993    -0.73800
O1097       O  0.21487254  0.99400276  0.97794897    -0.62420
O1098       O  0.21477558  0.99615522  0.03307963    -0.70830
O1099       O  0.18521563  0.99538399  0.03203263    -0.70390
O1100       O  0.18532728  0.99549487  0.97879048    -0.61640
O1101       O  0.18504086  0.96876694  0.00541875    -0.74150
O1102       O  0.18549265  0.02206430  0.00539813    -0.72930
Cu1103     Cu  0.21601546  0.99515048  0.00550632     1.04560
Cu1104     Cu  0.18443169  0.99544810  0.00541139     1.04330
C1105       C  0.19995602  0.03110307  0.00431755     0.93380
C1106       C  0.19933744  0.95949292  0.00651828     0.92520
C1107       C  0.19973493  0.99429102  0.96970139     0.84660
C1108       C  0.19964421  0.99584122  0.04128388     0.90930
O1109       O  0.02628256  0.18368355  0.00572526    -0.72820
O1110       O  0.97344286  0.18359013  0.00674798    -0.73800
O1111       O  0.99915728  0.18330287  0.97913944    -0.62420
O1112       O  0.00031983  0.18438327  0.03317143    -0.70830
O1113       O  0.99968651  0.21437433  0.03263455    -0.70390
O1114       O  0.99957562  0.21325122  0.97829730    -0.61640
O1115       O  0.97208847  0.21326578  0.00559838    -0.74150
O1116       O  0.02724969  0.21345850  0.00540245    -0.72930
Cu1117     Cu  0.99981989  0.18282435  0.00621565     1.04560
Cu1118     Cu  0.99966648  0.21474334  0.00546418     1.04330
C1119       C  0.03545308  0.19823089  0.00551083     0.93380
C1120       C  0.96409743  0.19788974  0.00617405     0.92520
C1121       C  0.99903492  0.19805174  0.97018375     0.84660
C1122       C  0.99997530  0.19951069  0.04138858     0.90930
N1123       N  0.19038303  0.49649464  0.36342057    -0.27170
N1124       N  0.17444018  0.48936203  0.36672455    -0.35030
C1125       C  0.17239557  0.48747824  0.38464980     0.01170
C1126       C  0.18787576  0.49345739  0.39306761     0.07200
C1127       C  0.19894883  0.49927589  0.37919428    -0.05900
H1128       H  0.16031241  0.48258806  0.39113935     0.07870
H1129       H  0.21190264  0.50575558  0.38042474     0.09070
Cu1130     Cu  0.15537169  0.48434596  0.34694165     0.44170
Cu1131     Cu  0.19929685  0.50226219  0.33749856     0.41990
Cu1132     Cu  0.16632718  0.49623381  0.30127180     0.43880
N1133       N  0.13641927  0.48667783  0.32657510    -0.34550
N1134       N  0.14013918  0.49231300  0.31007067    -0.28810
C1135       C  0.12462668  0.49545886  0.30124728    -0.04910
C1136       C  0.11043629  0.49176580  0.31284692     0.07310
C1137       C  0.11854174  0.48571362  0.32858735     0.01100
H1138       H  0.12374753  0.50076734  0.28765566     0.08760
H1139       H  0.11208731  0.48142936  0.34089387     0.07830
N1140       N  0.19382034  0.49873302  0.29721960    -0.36000
N1141       N  0.20557692  0.50184077  0.31020983    -0.28180
C1142       C  0.22214736  0.50246887  0.30304659    -0.03420
C1143       C  0.22095907  0.49899904  0.28466301     0.05190
C1144       C  0.20268175  0.49695404  0.28152618     0.03280
H1145       H  0.23398945  0.50515240  0.31091935     0.08390
H1146       H  0.19628589  0.49388824  0.26877338     0.07220
N1147       N  0.35558557  0.49817538  0.20351326    -0.27170
N1148       N  0.35955532  0.50418222  0.18721753    -0.35030
C1149       C  0.37747086  0.50527465  0.18563187     0.01170
C1150       C  0.38540038  0.49948704  0.20163693     0.07200
C1151       C  0.37091561  0.49497281  0.21263316    -0.05900
H1152       H  0.38428329  0.50925900  0.17334952     0.07870
H1153       H  0.37122008  0.48888767  0.22584536     0.09070
Cu1154     Cu  0.34065161  0.50720120  0.16678202     0.44170
Cu1155     Cu  0.32928496  0.49390333  0.21167649     0.41990
Cu1156     Cu  0.29669313  0.48815566  0.17514911     0.43880
N1157       N  0.32172777  0.50242758  0.14670326    -0.34550
N1158       N  0.30612460  0.49438469  0.14950706    -0.28810
C1159       C  0.29809429  0.49144980  0.13347705    -0.04910
C1160       C  0.30928148  0.49776579  0.11988654     0.07310
C1161       C  0.32394268  0.50500279  0.12888633     0.01100
H1162       H  0.28525985  0.48479787  0.13180687     0.08760
H1163       H  0.33551521  0.51154684  0.12306027     0.07830
N1164       N  0.29006596  0.48873839  0.20236474    -0.36000
N1165       N  0.30175827  0.49171712  0.21544037    -0.28180
C1166       C  0.29282036  0.49365398  0.23105865    -0.03420
C1167       C  0.27454522  0.49182898  0.22780953     0.05190
C1168       C  0.27343025  0.48836069  0.20941217     0.03280
H1169       H  0.29918061  0.49665013  0.24384603     0.08390
H1170       H  0.26160279  0.48581723  0.20146806     0.07220
O1171       O  0.99747381  0.52295607  0.28596352    -0.72820
O1172       O  0.99767468  0.46846856  0.28576703    -0.73800
O1173       O  0.97022671  0.49546389  0.28655427    -0.62420
O1174       O  0.02499622  0.49598837  0.28571655    -0.70830
O1175       O  0.02458757  0.49587703  0.31553647    -0.70390
O1176       O  0.97151932  0.49524098  0.31631988    -0.61640
O1177       O  0.99838027  0.46855138  0.31574392    -0.74150
O1178       O  0.99773429  0.52255419  0.31595240    -0.72930
Cu1179     Cu  0.99758304  0.49572112  0.28486268     1.04560
Cu1180     Cu  0.99807313  0.49554769  0.31682615     1.04330
C1181       C  0.99756344  0.53125741  0.30107095     0.93380
C1182       C  0.99800290  0.45999774  0.30080747     0.92520
C1183       C  0.96221807  0.49521899  0.30185446     0.84660
C1184       C  0.03343214  0.49610847  0.30078993     0.90930
O1185       O  0.28295553  0.49565969  0.97877671    -0.72820
O1186       O  0.28306198  0.49702034  0.03372076    -0.73800
O1187       O  0.28394118  0.52389531  0.00521766    -0.62420
O1188       O  0.28210220  0.46895381  0.00713634    -0.70830
O1189       O  0.31180596  0.46873501  0.00670374    -0.70390
O1190       O  0.31346248  0.52207628  0.00578636    -0.61640
O1191       O  0.31263981  0.49576425  0.03295282    -0.74150
O1192       O  0.31258460  0.49510628  0.97944676    -0.72930
Cu1193     Cu  0.28185373  0.49643502  0.00622549     1.04560
Cu1194     Cu  0.31350221  0.49540256  0.00622429     1.04330
C1195       C  0.29798784  0.49530088  0.97042306     0.93380
C1196       C  0.29810363  0.49630524  0.04204775     0.92520
C1197       C  0.29934332  0.53164081  0.00486312     0.84660
C1198       C  0.29695566  0.46025969  0.00750042     0.90930
O1199       O  0.20807503  0.49547018  0.53367902    -0.72820
O1200       O  0.20705262  0.49579133  0.47917591    -0.73800
O1201       O  0.20792590  0.52304621  0.50627714    -0.62420
O1202       O  0.20690186  0.46818884  0.50632758    -0.70830
O1203       O  0.17734850  0.46926674  0.50709351    -0.70390
O1204       O  0.17828326  0.52281779  0.50699237    -0.63320
O1205       O  0.17736815  0.49617483  0.48007521    -0.74150
O1206       O  0.17836303  0.49599995  0.53398312    -0.72930
Cu1207     Cu  0.20859843  0.49559394  0.50638389     1.04560
Cu1208     Cu  0.17690352  0.49606980  0.50707672     1.04330
C1209       C  0.19329536  0.49558976  0.54244191     0.93380
C1210       C  0.19192703  0.49632524  0.47101600     0.92520
C1211       C  0.19302048  0.53161104  0.50630754     0.84660
C1212       C  0.19171601  0.46002075  0.50661034     0.90930
O1213       O  0.47369409  0.18194442  0.50608104    -0.72820
O1214       O  0.52683160  0.18417696  0.50483405    -0.73800
O1215       O  0.50102500  0.18235834  0.53235467    -0.62420
O1216       O  0.49954910  0.18386348  0.47857327    -0.70830
O1217       O  0.49888280  0.21385665  0.47910920    -0.70390
O1218       O  0.49917941  0.21222686  0.53343532    -0.61640
O1219       O  0.52623350  0.21404564  0.50614294    -0.74150
O1220       O  0.47170378  0.21162127  0.50637884    -0.72930
Cu1221     Cu  0.50030807  0.18213371  0.50543426     1.04560
Cu1222     Cu  0.49894801  0.21406632  0.50630005     1.04330
C1223       C  0.46404455  0.19609606  0.50626209     0.93380
C1224       C  0.53509749  0.19926512  0.50544136     0.92520
C1225       C  0.50043850  0.19696495  0.54142279     0.84660
C1226       C  0.49912845  0.19901076  0.47036016     0.90930
O1227       O  0.47165235  0.49441517  0.22137557    -0.72820
O1228       O  0.52631404  0.49640630  0.22182929    -0.73800
O1229       O  0.49819447  0.52248543  0.22411507    -0.62420
O1230       O  0.49999707  0.46823849  0.21946929    -0.70830
O1231       O  0.49950151  0.47111633  0.18983903    -0.70390
O1232       O  0.49862486  0.52472951  0.19419716    -0.61640
O1233       O  0.52565656  0.49844142  0.19208060    -0.74150
O1234       O  0.47248192  0.49754339  0.19176050    -0.72930
Cu1235     Cu  0.49901034  0.49528236  0.22282828     1.04560
Cu1236     Cu  0.49906181  0.49802686  0.19103967     1.04330
C1237       C  0.46343801  0.49562304  0.20619808     0.93380
C1238       C  0.53461262  0.49779984  0.20675753     0.92520
C1239       C  0.49823924  0.53206375  0.20975303     0.84660
C1240       C  0.50014459  0.46103176  0.20377454     0.90930
N1241       N  0.69515855  0.49215157  0.14795945    -0.27170
N1242       N  0.67819878  0.49002347  0.14321560    -0.35030
C1243       C  0.67721180  0.48895295  0.12514228     0.01170
C1244       C  0.69442053  0.49023514  0.11824195     0.07200
C1245       C  0.70547233  0.49250444  0.13304732    -0.05900
H1246       H  0.66483740  0.48781931  0.11757983     0.07870
H1247       H  0.71988174  0.49435748  0.13299106     0.09070
Cu1248     Cu  0.65726754  0.48983211  0.16165230     0.44170
Cu1249     Cu  0.70283679  0.49497734  0.17453493     0.41990
Cu1250     Cu  0.66713606  0.50425764  0.20737085     0.43880
N1251       N  0.63793793  0.49377234  0.18138106    -0.34550
N1252       N  0.64126953  0.49998246  0.19776293    -0.28810
C1253       C  0.62556751  0.50243060  0.20644611    -0.04910
C1254       C  0.61169727  0.49770901  0.19487816     0.07310
C1255       C  0.62013949  0.49188983  0.17928430     0.01100
H1256       H  0.62431792  0.50760730  0.22004156     0.08760
H1257       H  0.61394526  0.48665728  0.16721012     0.07830
N1258       N  0.69424365  0.50237020  0.21370468    -0.36000
N1259       N  0.70683427  0.49813884  0.20189380    -0.28180
C1260       C  0.72246139  0.49596695  0.21058805    -0.03420
C1261       C  0.71976585  0.49893948  0.22884087     0.05190
C1262       C  0.70167956  0.50330508  0.23022974     0.03280
H1263       H  0.73487076  0.49207214  0.20408409     0.08390
H1264       H  0.69423679  0.50686160  0.24215935     0.07220
N1265       N  0.80205276  0.49844099  0.36132842    -0.27170
N1266       N  0.81807072  0.50496147  0.36522268    -0.35030
C1267       C  0.81938317  0.50672269  0.38321158     0.01170
C1268       C  0.80347842  0.50082487  0.39118493     0.07200
C1269       C  0.79285426  0.49555506  0.37670767    -0.05900
H1270       H  0.83145546  0.51106432  0.39008433     0.07870
H1271       H  0.77993474  0.48902056  0.37709455     0.09070
Cu1272     Cu  0.83846416  0.50747462  0.34611193     0.44170
Cu1273     Cu  0.79436948  0.49283138  0.33520725     0.41990
Cu1274     Cu  0.83021773  0.48657329  0.30237869     0.43880
N1275       N  0.85832641  0.50225087  0.32700220    -0.34550
N1276       N  0.85556234  0.49354616  0.31168057    -0.28810
C1277       C  0.87147821  0.49052499  0.30362355    -0.04910
C1278       C  0.88498838  0.49749272  0.31445725     0.07310
C1279       C  0.87602389  0.50520221  0.32894496     0.01100
H1280       H  0.87313073  0.48337398  0.29100341     0.08760
H1281       H  0.88177387  0.51233901  0.34022455     0.07830
N1282       N  0.80312934  0.48680748  0.29591716    -0.36000
N1283       N  0.79033680  0.48996529  0.30782457    -0.28180
C1284       C  0.77468890  0.49194337  0.29913081    -0.03420
C1285       C  0.77756788  0.48992262  0.28075156     0.05190
C1286       C  0.79582981  0.48632930  0.27931372     0.03280
H1287       H  0.76216524  0.49525572  0.30573379     0.08390
H1288       H  0.80353887  0.48378852  0.26730344     0.07220
O1289       O  0.71381099  0.49590954  0.97803345    -0.72820
O1290       O  0.71875033  0.49592580  0.03240945    -0.73800
O1291       O  0.71551048  0.46831645  0.00569691    -0.62420
O1292       O  0.71653069  0.52356419  0.00519044    -0.70830
O1293       O  0.68709674  0.52305170  0.00842044    -0.70390
O1294       O  0.68604186  0.46997294  0.00740835    -0.61640
O1295       O  0.68901011  0.49570711  0.03461432    -0.74150
O1296       O  0.68445469  0.49717533  0.98125194    -0.72930
Cu1297     Cu  0.71731477  0.49592928  0.00518367     1.04560
Cu1298     Cu  0.68577321  0.49651446  0.00797662     1.04330
C1299       C  0.69812898  0.49668677  0.97098791     0.93380
C1300       C  0.70448119  0.49544601  0.04196809     0.92520
C1301       C  0.70019548  0.46046774  0.00709132     0.84660
C1302       C  0.70162846  0.53202054  0.00688755     0.90930
N1303       N  0.80678232  0.13707405  0.01233544    -0.27170
N1304       N  0.82322567  0.13437497  0.00644085    -0.35030
C1305       C  0.82577595  0.11671542  0.00360026     0.01170
C1306       C  0.81044314  0.10737680  0.00877952     0.07200
C1307       C  0.79852002  0.12094308  0.01395734    -0.05900
H1308       H  0.83800603  0.11145599  0.99803827     0.07870
H1309       H  0.78485654  0.11922494  0.01860375     0.09070
Cu1310     Cu  0.84199151  0.15463529  0.00419178     0.44170
Cu1311     Cu  0.79723730  0.16322935  0.01562326     0.41990
Cu1312     Cu  0.82893957  0.19951641  0.99803233     0.43880
N1313       N  0.86010298  0.17561820  0.00369131    -0.34550
N1314       N  0.85583866  0.19245198  0.00001829    -0.28810
C1315       C  0.87102104  0.20244324  0.99942760    -0.04910
C1316       C  0.88568133  0.19126609  0.00326699     0.07310
C1317       C  0.87780916  0.17441540  0.00612237     0.01100
H1318       H  0.87104344  0.21662079  0.99623165     0.08760
H1319       H  0.88437190  0.16190192  0.00970698     0.07830
N1320       N  0.80158116  0.20225805  0.00297961    -0.36000
N1321       N  0.79093250  0.19017294  0.01067439    -0.28180
C1322       C  0.77474147  0.19766992  0.01342689    -0.03420
C1323       C  0.77483649  0.21520534  0.00667916     0.05190
C1324       C  0.79223177  0.21747842  0.00023671     0.03280
H1325       H  0.76399944  0.19062482  0.02010054     0.08390
H1326       H  0.79790660  0.22943052  0.99405475     0.07220
N1327       N  0.69414769  0.35219995  0.01425376    -0.27170
N1328       N  0.67761247  0.35644582  0.00958421    -0.35030
C1329       C  0.67658153  0.37432997  0.00713749     0.01170
C1330       C  0.69323753  0.38204960  0.01068425     0.07200
C1331       C  0.70406791  0.36742178  0.01527078    -0.05900
H1332       H  0.66439139  0.38127356  0.00329256     0.07870
H1333       H  0.71790437  0.36758669  0.01948322     0.09070
Cu1334     Cu  0.65691607  0.33789660  0.00770568     0.44170
Cu1335     Cu  0.70174115  0.32547524  0.01736413     0.41990
Cu1336     Cu  0.66811787  0.29191256  0.00054800     0.43880
N1337       N  0.63781927  0.31773340  0.00537247    -0.34550
N1338       N  0.64169484  0.30073768  0.00174806    -0.28810
C1339       C  0.62625557  0.29136080  0.99998230    -0.04910
C1340       C  0.61197774  0.30314445  0.00248223     0.07310
C1341       C  0.61994712  0.31961849  0.00634605     0.01100
H1342       H  0.62547661  0.27709349  0.99693942     0.08760
H1343       H  0.61333883  0.33215716  0.00960245     0.07830
N1344       N  0.69523830  0.28693827  0.00486305    -0.36000
N1345       N  0.70666465  0.29840060  0.01231717    -0.28180
C1346       C  0.72259111  0.29020740  0.01440363    -0.03420
C1347       C  0.72151348  0.27290073  0.00734241     0.05190
C1348       C  0.70381645  0.27133183  0.00161719     0.03280
H1349       H  0.73393427  0.29660461  0.02073790     0.08390
H1350       H  0.69752890  0.25966160  0.99551804     0.07220
N1351       N  0.80271628  0.99288844  0.14896901    -0.27170
N1352       N  0.81954423  0.99186371  0.14345235    -0.35030
C1353       C  0.81983321  0.99212258  0.12529634     0.01170
C1354       C  0.80232020  0.99331400  0.11920658     0.07200
C1355       C  0.79179020  0.99381475  0.13452969    -0.05900
H1356       H  0.83186043  0.99143119  0.11713938     0.07870
H1357       H  0.77730887  0.99471127  0.13515247     0.09070
Cu1358     Cu  0.84101057  0.99083687  0.16131342     0.44170
Cu1359     Cu  0.79596780  0.99349581  0.17595796     0.41990
Cu1360     Cu  0.83188308  0.00406533  0.20788314     0.43880
N1361       N  0.86051671  0.99379896  0.18113148    -0.34550
N1362       N  0.85748350  0.99979433  0.19764768    -0.28810
C1363       C  0.87330446  0.00169020  0.20625295    -0.04910
C1364       C  0.88699170  0.99676459  0.19455594     0.07310
C1365       C  0.87823378  0.99139343  0.17893439     0.01100
H1366       H  0.87475295  0.00653503  0.21995251     0.08760
H1367       H  0.88411366  0.98609723  0.16675866     0.07830
N1368       N  0.80498692  0.00162215  0.21488105    -0.36000
N1369       N  0.79236317  0.99666999  0.20338265    -0.28180
C1370       C  0.77677417  0.99495701  0.21223421    -0.03420
C1371       C  0.77947781  0.99912689  0.23026808     0.05190
C1372       C  0.79760244  0.00352132  0.23135484     0.03280
H1373       H  0.76427233  0.99105764  0.20589238     0.08390
H1374       H  0.80500500  0.00812048  0.24296050     0.07220
N1375       N  0.69412994  0.99578065  0.36252890    -0.27170
N1376       N  0.67883406  0.98754223  0.36635318    -0.35030
C1377       C  0.67724954  0.98608909  0.38436306     0.01170
C1378       C  0.69203463  0.99416402  0.39236369     0.07200
C1379       C  0.70262868  0.99987959  0.37806586    -0.05900
H1380       H  0.66595636  0.97985206  0.39105256     0.07870
H1381       H  0.71527002  0.00704555  0.37890606     0.09070
Cu1382     Cu  0.65925663  0.98115717  0.34732637     0.44170
Cu1383     Cu  0.70218778  0.00124753  0.33624648     0.41990
Cu1384     Cu  0.66730593  0.99448482  0.30194367     0.43880
N1385       N  0.63898131  0.98349703  0.32813014    -0.34550
N1386       N  0.64168045  0.99002067  0.31179949    -0.28810
C1387       C  0.62568295  0.99309990  0.30390383    -0.04910
C1388       C  0.61205211  0.98826381  0.31584940     0.07310
C1389       C  0.62124358  0.98170836  0.33089963     0.01100
H1390       H  0.62413074  0.99900489  0.29062768     0.08760
H1391       H  0.61589644  0.97640291  0.34309856     0.07830
N1392       N  0.69442692  0.99728761  0.29642605    -0.36000
N1393       N  0.70686957  0.00082130  0.30862074    -0.28180
C1394       C  0.72283646  0.00214256  0.30028999    -0.03420
C1395       C  0.72049501  0.99913968  0.28190523     0.05190
C1396       C  0.70221746  0.99579367  0.28015527     0.03280
H1397       H  0.73533504  0.00483063  0.30722978     0.08390
H1398       H  0.69487297  0.99198877  0.26826194     0.07220
O1399       O  0.77679113  0.96767966  0.00544944    -0.72820
O1400       O  0.78025120  0.02240052  0.00675006    -0.73800
O1401       O  0.78097099  0.99570011  0.97894634    -0.62420
O1402       O  0.77598700  0.99474204  0.03346272    -0.70830
O1403       O  0.80567325  0.99299234  0.03570277    -0.70390
O1404       O  0.81031288  0.99301433  0.98211811    -0.61640
O1405       O  0.80964105  0.01967108  0.00900059    -0.74150
O1406       O  0.80639854  0.96616211  0.00869825    -0.72930
Cu1407     Cu  0.77736759  0.99514780  0.00607265     1.04560
Cu1408     Cu  0.80892811  0.99287215  0.00897862     1.04330
C1409       C  0.79122845  0.95841996  0.00684172     0.93380
C1410       C  0.79575661  0.02972044  0.00798004     0.92520
C1411       C  0.79665533  0.99479613  0.97192401     0.84660
C1412       C  0.79024451  0.99405808  0.04307378     0.90930
N1413       N  0.69291457  0.14059144  0.50682078    -0.27170
N1414       N  0.67818863  0.13735664  0.51624588    -0.35030
C1415       C  0.67690694  0.11957389  0.51941351     0.01170
C1416       C  0.69089960  0.11080781  0.51074648     0.07200
C1417       C  0.70106664  0.12471453  0.50327523    -0.05900
H1418       H  0.66606430  0.11359722  0.52695624     0.07870
H1419       H  0.71315934  0.12334668  0.49530690     0.09070
Cu1420     Cu  0.65782950  0.15594263  0.52086965     0.44170
Cu1421     Cu  0.70092938  0.16669787  0.49979037     0.41990
Cu1422     Cu  0.66671770  0.20093868  0.50899886     0.43880
N1423       N  0.63751485  0.17481256  0.51717187    -0.34550
N1424       N  0.64095638  0.19162094  0.51234328    -0.28810
C1425       C  0.62545834  0.20025583  0.50896708    -0.04910
C1426       C  0.61151503  0.18819807  0.51156005     0.07310
C1427       C  0.61963314  0.17225106  0.51704992     0.01100
H1428       H  0.62445565  0.21406699  0.50427741     0.08760
H1429       H  0.61313892  0.15966986  0.52054783     0.07830
N1430       N  0.69337508  0.20654070  0.50455090    -0.36000
N1431       N  0.70570056  0.19448961  0.50022754    -0.28180
C1432       C  0.72159091  0.20301356  0.49871749    -0.03420
C1433       C  0.71915474  0.22128714  0.50233953     0.05190
C1434       C  0.70106538  0.22283387  0.50623896     0.03280
H1435       H  0.73416479  0.19626192  0.49595859     0.08390
H1436       H  0.69397294  0.23454155  0.51103109     0.07220
N1437       N  0.80850723  0.35265590  0.50610950    -0.27170
N1438       N  0.82393186  0.35510616  0.49762377    -0.35030
C1439       C  0.82660176  0.37285197  0.49504141     0.01170
C1440       C  0.81260061  0.38235357  0.50289096     0.07200
C1441       C  0.80120222  0.36895316  0.50948581    -0.05900
H1442       H  0.83809095  0.37817975  0.48802005     0.07870
H1443       H  0.78862157  0.37091254  0.51650767     0.09070
Cu1444     Cu  0.84266757  0.33505111  0.49240013     0.44170
Cu1445     Cu  0.79802728  0.32712127  0.51207347     0.41990
Cu1446     Cu  0.83073199  0.29121934  0.50565684     0.43880
N1447       N  0.86144207  0.31457937  0.49547150    -0.34550
N1448       N  0.85697724  0.29839402  0.50138271    -0.28810
C1449       C  0.87189963  0.28880316  0.50481441    -0.04910
C1450       C  0.88667122  0.29937762  0.50052119     0.07310
C1451       C  0.87941403  0.31568642  0.49471615     0.01100
H1452       H  0.87175098  0.27564489  0.51104963     0.08760
H1453       H  0.88671634  0.32780377  0.49108276     0.07830
N1454       N  0.80368345  0.28696176  0.50863064    -0.36000
N1455       N  0.79166168  0.29961617  0.51192681    -0.28180
C1456       C  0.77539075  0.29172264  0.51297823    -0.03420
C1457       C  0.77731661  0.27321999  0.51013336     0.05190
C1458       C  0.79548027  0.27093802  0.50706330     0.03280
H1459       H  0.76298908  0.29899790  0.51512010     0.08390
H1460       H  0.80240180  0.25883062  0.50311344     0.07220
O1461       O  0.68553229  0.97078297  0.50476629    -0.72820
O1462       O  0.68726006  0.02383826  0.50562640    -0.73800
O1463       O  0.68745431  0.99782102  0.47846194    -0.62420
O1464       O  0.68553556  0.99683101  0.53190307    -0.70830
O1465       O  0.71499663  0.99525662  0.53378361    -0.70390
O1466       O  0.71708055  0.99749989  0.47879581    -0.61640
O1467       O  0.71679289  0.02412748  0.50731946    -0.74150
O1468       O  0.71498643  0.96875012  0.50531336    -0.72930
Cu1469     Cu  0.68561436  0.99735899  0.50514897     1.04560
Cu1470     Cu  0.71715732  0.99638620  0.50633453     1.04330
C1471       C  0.69953228  0.96105046  0.50489872     0.93380
C1472       C  0.70187802  0.03272564  0.50669513     0.92520
C1473       C  0.70233437  0.99798188  0.46993089     0.84660
C1474       C  0.69960578  0.99547370  0.54152563     0.90930
O1475       O  0.81375227  0.49728903  0.53169239    -0.72820
O1476       O  0.81300577  0.49746331  0.47855914    -0.73800
O1477       O  0.81147166  0.52415553  0.50514572    -0.62420
O1478       O  0.81484631  0.47031540  0.50507285    -0.70830
O1479       O  0.78534861  0.46793595  0.50536031    -0.70390
O1480       O  0.78171401  0.52229272  0.50588181    -0.61640
O1481       O  0.78349452  0.49527598  0.47794030    -0.74150
O1482       O  0.78430075  0.49472805  0.53318134    -0.72930
Cu1483     Cu  0.81416836  0.49737910  0.50510618     1.04560
Cu1484     Cu  0.78256467  0.49502559  0.50560027     1.04330
C1485       C  0.79959981  0.49565570  0.54110414     0.93380
C1486       C  0.79855894  0.49617612  0.46956114     0.92520
C1487       C  0.79610442  0.53170125  0.50559725     0.84660
C1488       C  0.80075266  0.46041821  0.50520665     0.90930
C1489       C  0.79231677  0.40901015  0.50346291    -0.05660
C1490       C  0.81000163  0.40237654  0.50404543     0.00270
C1491       C  0.82433057  0.41492878  0.50618075    -0.08300
C1492       C  0.82042594  0.43348069  0.50613488    -0.05680
C1493       C  0.80281238  0.44024005  0.50518206     0.00260
C1494       C  0.78833596  0.42764235  0.50435330    -0.08210
C1495       C  0.76875676  0.43346244  0.50447240     0.62170
H1496       H  0.78147845  0.39936263  0.50211701     0.12860
H1497       H  0.83148684  0.44293678  0.50693856     0.12870
C1498       C  0.84382195  0.40942771  0.50886591     0.62400
F1499       F  0.75713057  0.41885129  0.50411116    -0.22770
F1500       F  0.76515298  0.44400100  0.48947024    -0.20100
F1501       F  0.76516013  0.44310543  0.52004165    -0.19770
F1502       F  0.85163623  0.40601301  0.49230251    -0.19820
F1503       F  0.84508151  0.39439959  0.51990006    -0.20150
F1504       F  0.85363236  0.42304209  0.51707142    -0.22820
C1505       C  0.68289042  0.06001111  0.50742617    -0.05660
C1506       C  0.70044930  0.05297803  0.50726473     0.00270
C1507       C  0.71506905  0.06537694  0.50714307    -0.08300
C1508       C  0.71135287  0.08412547  0.50832057    -0.05680
C1509       C  0.69367202  0.09090591  0.50875659     0.00260
C1510       C  0.67918480  0.07851420  0.50716746    -0.08210
C1511       C  0.65965027  0.08400009  0.50455112     0.62170
H1512       H  0.67156016  0.05084849  0.50746163     0.12860
H1513       H  0.72232920  0.09369179  0.50905825     0.12870
C1514       C  0.73440893  0.05913127  0.50560801     0.62400
F1515       F  0.65019713  0.07078071  0.49533478    -0.22770
F1516       F  0.65824096  0.09962975  0.49441321    -0.20100
F1517       F  0.65154594  0.08625948  0.52118123    -0.19770
F1518       F  0.73654322  0.04907060  0.49003045    -0.19820
F1519       F  0.73892021  0.04876942  0.52047736    -0.20150
F1520       F  0.74627797  0.07352283  0.50475256    -0.22820
C1521       C  0.74983783  0.22945057  0.51182509    -0.05660
C1522       C  0.73347774  0.23518356  0.50440166     0.00270
C1523       C  0.73160803  0.25351425  0.49896156    -0.08300
C1524       C  0.74631082  0.26525627  0.50119060    -0.05680
C1525       C  0.76272688  0.25949753  0.50854323     0.00260
C1526       C  0.76447674  0.24119531  0.51421565    -0.08210
C1527       C  0.78140525  0.23356788  0.52280990     0.62170
H1528       H  0.75110592  0.21547038  0.51592870     0.12860
H1529       H  0.74505638  0.27920987  0.49701046     0.12870
C1530       C  0.71445753  0.26103248  0.49074458     0.62400
F1531       F  0.77789264  0.21777881  0.53223158    -0.22770
F1532       F  0.78871141  0.24568355  0.53495942    -0.20100
F1533       F  0.79374828  0.22950790  0.50949823    -0.19770
F1534       F  0.70202681  0.26409610  0.50423511    -0.19820
F1535       F  0.70746996  0.24920359  0.47812847    -0.20150
F1536       F  0.71746251  0.27732509  0.48203624    -0.22820
C1537       C  0.68525438  0.00457248  0.44214405    -0.05660
C1538       C  0.70161723  0.99883706  0.44973253     0.00270
C1539       C  0.71573245  0.99356433  0.43791015    -0.08300
C1540       C  0.71216962  0.99261747  0.41916118    -0.05680
C1541       C  0.69527492  0.99705581  0.41194950     0.00260
C1542       C  0.68192101  0.00415900  0.42353571    -0.08210
C1543       C  0.66408234  0.01144133  0.41669999     0.62170
H1544       H  0.67467819  0.00926764  0.45099152     0.12860
H1545       H  0.72244063  0.98789147  0.40997043     0.12870
C1546       C  0.73430630  0.98870171  0.44480864     0.62400
F1547       F  0.65661290  0.02343555  0.42889592    -0.22770
F1548       F  0.65212741  0.99736031  0.41434206    -0.20100
F1549       F  0.66631098  0.02063784  0.40058002    -0.19770
F1550       F  0.73320635  0.97413246  0.45646900    -0.19820
F1551       F  0.74169560  0.00335293  0.45370093    -0.20150
F1552       F  0.74583986  0.98408045  0.43090324    -0.22820
C1553       C  0.79469193  0.01002693  0.09129955    -0.05660
C1554       C  0.79629703  0.99340491  0.10026595     0.00270
C1555       C  0.79321294  0.97714041  0.09081101    -0.08300
C1556       C  0.78972031  0.97799470  0.07219881    -0.05680
C1557       C  0.78937651  0.99448317  0.06293740     0.00260
C1558       C  0.79124230  0.01083144  0.07261332    -0.08210
C1559       C  0.79000560  0.02891780  0.06304824     0.62170
H1560       H  0.79684795  0.02232121  0.09891404     0.12860
H1561       H  0.78804502  0.96572221  0.06461085     0.12870
C1562       C  0.79416605  0.95898941  0.10030950     0.62400
F1563       F  0.79127516  0.04321487  0.07500580    -0.22770
F1564       F  0.77369935  0.03016645  0.05419428    -0.20100
F1565       F  0.80374683  0.03050074  0.05059844    -0.19770
F1566       F  0.78192857  0.95856187  0.11434432    -0.19820
F1567       F  0.81124546  0.95634227  0.10712767    -0.20150
F1568       F  0.79025585  0.94484289  0.08875250    -0.22820
C1569       C  0.74802838  0.00516864  0.23851905    -0.05660
C1570       C  0.76513006  0.99966859  0.24429517     0.00270
C1571       C  0.76732254  0.99354514  0.26233452    -0.08300
C1572       C  0.75221870  0.99327428  0.27376727    -0.05680
C1573       C  0.73505334  0.99876501  0.26798525     0.00260
C1574       C  0.73287309  0.00466115  0.24980879    -0.08210
C1575       C  0.71489219  0.01014468  0.24177749     0.62170
H1576       H  0.74653570  0.00975395  0.22472225     0.12860
H1577       H  0.75379033  0.98865116  0.28753771     0.12870
C1578       C  0.78526484  0.98723765  0.26979892     0.62400
F1579       F  0.71682772  0.01855374  0.22517204    -0.22770
F1580       F  0.70613564  0.02213744  0.25301308    -0.20100
F1581       F  0.70450941  0.99490298  0.23906021    -0.19770
F1582       F  0.79632349  0.00198288  0.27249540    -0.19820
F1583       F  0.79330182  0.97521952  0.25804325    -0.20150
F1584       F  0.78336723  0.97853458  0.28625500    -0.22820
C1585       C  0.81607471  0.05592399  0.01116589    -0.05660
C1586       C  0.79840510  0.04981561  0.00836784     0.00270
C1587       C  0.78460685  0.06289507  0.00608002    -0.08300
C1588       C  0.78933040  0.08139641  0.00607752    -0.05680
C1589       C  0.80710013  0.08740452  0.00873110     0.00260
C1590       C  0.82071832  0.07426857  0.01182946    -0.08210
C1591       C  0.84024181  0.07883214  0.01593063     0.62170
H1592       H  0.82664131  0.04606612  0.01286487     0.12860
H1593       H  0.77902240  0.09142142  0.00381921     0.12870
C1594       C  0.76501016  0.05767796  0.00365888     0.62400
F1595       F  0.84911889  0.06443602  0.02387332    -0.22770
F1596       F  0.84142287  0.09311090  0.02787523    -0.20100
F1597       F  0.84913365  0.08283291  0.00003701    -0.19770
F1598       F  0.75916169  0.04808777  0.01859227    -0.19820
F1599       F  0.76302778  0.04728388  0.98828557    -0.20150
F1600       F  0.75401736  0.07264102  0.00184164    -0.22820
C1601       C  0.76622096  0.24748934  0.00632261    -0.05660
C1602       C  0.76048161  0.22937494  0.00691947     0.00270
C1603       C  0.74167887  0.22580235  0.00677420    -0.08300
C1604       C  0.72971964  0.24048791  0.00751814    -0.05680
C1605       C  0.73554498  0.25853865  0.00675134     0.00260
C1606       C  0.75422860  0.26204595  0.00511482    -0.08210
C1607       C  0.76207499  0.28066535  0.00141499     0.62170
H1608       H  0.78043104  0.25044326  0.00665471     0.12860
H1609       H  0.71549712  0.23781028  0.00879520     0.12870
C1610       C  0.73369160  0.20694040  0.00558099     0.62400
F1611       F  0.77871191  0.27939757  0.99315437    -0.22770
F1612       F  0.76434466  0.28984267  0.01748473    -0.20100
F1613       F  0.75116961  0.29043329  0.98987248    -0.19770
F1614       F  0.73427194  0.19876005  0.02235198    -0.19820
F1615       F  0.74283210  0.19668137  0.99300119    -0.20150
F1616       F  0.71589079  0.20741362  0.00017669    -0.22820
C1617       C  0.71351177  0.42957731  0.00433960    -0.05660
C1618       C  0.69856265  0.44035690  0.00867401     0.00270
C1619       C  0.68252981  0.43166720  0.01478240    -0.08300
C1620       C  0.68231410  0.41280168  0.01624021    -0.05680
C1621       C  0.69683045  0.40195155  0.01108272     0.00260
C1622       C  0.71295049  0.41048745  0.00524752    -0.08210
C1623       C  0.72951153  0.39984795  0.99988797     0.62170
H1624       H  0.72570988  0.43625638  0.00000189     0.12860
H1625       H  0.67035972  0.40620556  0.02127227     0.12870
C1626       C  0.66536811  0.44179367  0.01969101     0.62400
F1627       F  0.74238869  0.41073555  0.99188008    -0.22770
F1628       F  0.72502036  0.38649368  0.98765462    -0.20100
F1629       F  0.73713607  0.39221615  0.01509271    -0.19770
F1630       F  0.65857465  0.45038180  0.00455081    -0.19820
F1631       F  0.66885577  0.45425468  0.03314694    -0.20150
F1632       F  0.65201554  0.43040264  0.02604087    -0.22820
C1633       C  0.81577593  0.49285174  0.42096748    -0.05660
C1634       C  0.80063735  0.49800053  0.41098418     0.00270
C1635       C  0.78424686  0.50125342  0.42029556    -0.08300
C1636       C  0.78409415  0.50015400  0.43936188    -0.05680
C1637       C  0.79958848  0.49593371  0.44937955     0.00260
C1638       C  0.81573946  0.49178836  0.43987414    -0.08210
C1639       C  0.83315240  0.48631649  0.44923765     0.62170
H1640       H  0.82800271  0.48984082  0.41370179     0.12860
H1641       H  0.77179295  0.50285469  0.44664685     0.12870
C1642       C  0.76695345  0.50594779  0.41050300     0.62400
F1643       F  0.84613663  0.48069769  0.43711113    -0.22770
F1644       F  0.82999713  0.47210252  0.46097712    -0.20100
F1645       F  0.84016921  0.50089923  0.45854488    -0.19770
F1646       F  0.76048941  0.49080607  0.40176164    -0.19820
F1647       F  0.76990234  0.51966231  0.39815201    -0.20150
F1648       F  0.75374332  0.51172108  0.42230240    -0.22820
C1649       C  0.69949673  0.47731381  0.06911236    -0.05660
C1650       C  0.70540230  0.49367651  0.06168439     0.00270
C1651       C  0.70970952  0.50835329  0.07306313    -0.08300
C1652       C  0.70670754  0.50649883  0.09175386    -0.05680
C1653       C  0.69955541  0.49049669  0.09902302     0.00260
C1654       C  0.69669927  0.47536273  0.08774017    -0.08210
C1655       C  0.69088717  0.45721530  0.09533819     0.62170
H1656       H  0.69649539  0.46621670  0.06006737     0.12860
H1657       H  0.70918519  0.51776827  0.10073105     0.12870
C1658       C  0.71675191  0.52597819  0.06533238     0.62400
F1659       F  0.69147317  0.44376770  0.08238181    -0.22770
F1660       F  0.67350533  0.45825635  0.10173628    -0.20100
F1661       F  0.70221793  0.45226649  0.10929363    -0.19770
F1662       F  0.70435561  0.53315024  0.05341100    -0.19820
F1663       F  0.73268159  0.52286085  0.05627432    -0.20150
F1664       F  0.71999938  0.53862295  0.07869492    -0.22820
C1665       C  0.74605716  0.48617629  0.27131396    -0.05660
C1666       C  0.76346918  0.49181611  0.26656812     0.00270
C1667       C  0.76617051  0.50038847  0.24958538    -0.08300
C1668       C  0.75125275  0.50294064  0.23822442    -0.05680
C1669       C  0.73386069  0.49731982  0.24301000     0.00260
C1670       C  0.73113506  0.48885201  0.26000769    -0.08210
C1671       C  0.71280444  0.48260296  0.26655160     0.62170
H1672       H  0.74414747  0.47966619  0.28426593     0.12860
H1673       H  0.75312683  0.50931161  0.22519130     0.12870
C1674       C  0.78443482  0.50684891  0.24305530     0.62400
F1675       F  0.71402011  0.47201705  0.28193571    -0.22770
F1676       F  0.70435515  0.47239902  0.25343358    -0.20100
F1677       F  0.70246474  0.49746521  0.27083870    -0.19770
F1678       F  0.79486973  0.49211758  0.23854932    -0.19820
F1679       F  0.79284203  0.51699221  0.25624754    -0.20150
F1680       F  0.78308393  0.51760542  0.22779873    -0.22820
C1681       C  0.56160921  0.50617823  0.18934647    -0.05660
C1682       C  0.55462834  0.49898427  0.20549290     0.00270
C1683       C  0.56682565  0.49280259  0.21892993    -0.08300
C1684       C  0.58539513  0.49286198  0.21497051    -0.05680
C1685       C  0.59209588  0.49908469  0.19833368     0.00260
C1686       C  0.58004259  0.50667344  0.18560978    -0.08210
C1687       C  0.58617345  0.51549772  0.16808737     0.62170
H1688       H  0.55241008  0.51139669  0.17929729     0.12860
H1689       H  0.59488475  0.48764951  0.22474788     0.12870
C1690       C  0.56051254  0.48594448  0.23719390     0.62400
F1691       F  0.57331443  0.52725260  0.16144024    -0.22770
F1692       F  0.58910280  0.50239767  0.15516432    -0.20100
F1693       F  0.60169486  0.52542320  0.17074467    -0.19770
F1694       F  0.54902619  0.47143039  0.23491772    -0.19820
F1695       F  0.55174286  0.49964190  0.24629060    -0.20150
F1696       F  0.57467727  0.48029158  0.24790790    -0.22820
C1697       C  0.56308893  0.18451703  0.49583974    -0.05660
C1698       C  0.55504743  0.19885611  0.50525708     0.00270
C1699       C  0.56607490  0.21087709  0.51525836    -0.08300
C1700       C  0.58453294  0.20693480  0.51683987    -0.05680
C1701       C  0.59219867  0.19176077  0.50850582     0.00260
C1702       C  0.58153962  0.18093786  0.49696038    -0.08210
C1703       C  0.58946377  0.16593941  0.48546870     0.62170
H1704       H  0.55465229  0.17577000  0.48774592     0.12860
H1705       H  0.59313437  0.21550276  0.52494362     0.12870
C1706       C  0.55854094  0.22753497  0.52446125     0.62400
F1707       F  0.57758435  0.16031135  0.47222677    -0.22770
F1708       F  0.59349382  0.15118834  0.49614200    -0.20100
F1709       F  0.60486951  0.17195346  0.47691407    -0.19770
F1710       F  0.54532903  0.22263925  0.53663594    -0.19820
F1711       F  0.55137905  0.23903711  0.51161847    -0.20150
F1712       F  0.57164279  0.23696911  0.53379466    -0.22820
C1713       C  0.93538653  0.49122996  0.32110860    -0.05660
C1714       C  0.94215776  0.49481810  0.30370182     0.00270
C1715       C  0.92971502  0.49812051  0.28949010    -0.08300
C1716       C  0.91120310  0.49890989  0.29368148    -0.05680
C1717       C  0.90470151  0.49615441  0.31131709     0.00260
C1718       C  0.91700585  0.49144867  0.32515341    -0.08210
C1719       C  0.91123247  0.48630265  0.34419534     0.62170
H1720       H  0.94469873  0.48825102  0.33192080     0.12860
H1721       H  0.90156819  0.50194211  0.28316090     0.12870
C1722       C  0.93565703  0.50084607  0.27005707     0.62400
F1723       F  0.92447024  0.47661136  0.35306130    -0.22770
F1724       F  0.89604712  0.47553763  0.34382045    -0.20100
F1725       F  0.90794828  0.50172968  0.35411412    -0.19770
F1726       F  0.94463496  0.48563498  0.26410010    -0.19820
F1727       F  0.94681023  0.51574991  0.26884315    -0.20150
F1728       F  0.92124640  0.50366792  0.25858138    -0.22820
C1729       C  0.28915285  0.50024556  0.09319028    -0.05660
C1730       C  0.30633523  0.49637680  0.10005566     0.00270
C1731       C  0.31999153  0.49081839  0.08795894    -0.08300
C1732       C  0.31640041  0.49105695  0.06938817    -0.05680
C1733       C  0.29951526  0.49578497  0.06224565     0.00260
C1734       C  0.28533672  0.49981038  0.07448302    -0.08210
C1735       C  0.26633604  0.50367663  0.06812493     0.62170
H1736       H  0.27872357  0.50388681  0.10268831     0.12860
H1737       H  0.32713622  0.48745397  0.06023722     0.12870
C1738       C  0.33834046  0.48425212  0.09415631     0.62400
F1739       F  0.25485492  0.50721784  0.08238918    -0.22770
F1740       F  0.25964049  0.48882430  0.05901449    -0.20100
F1741       F  0.26627083  0.51858814  0.05685303    -0.19770
F1742       F  0.33686344  0.47377140  0.10956323    -0.19820
F1743       F  0.34939353  0.49888038  0.09743499    -0.20150
F1744       F  0.34648930  0.47368845  0.08110383    -0.22820
C1745       C  0.41504073  0.49151811  0.18914803    -0.05660
C1746       C  0.40513579  0.49668124  0.20440936     0.00270
C1747       C  0.41450601  0.50018181  0.22078964    -0.08300
C1748       C  0.43346915  0.49932194  0.22080256    -0.05680
C1749       C  0.44337309  0.49510940  0.20519599     0.00260
C1750       C  0.43387652  0.49072296  0.18906976    -0.08210
C1751       C  0.44322414  0.48526346  0.17160547     0.62170
H1752       H  0.40778626  0.48832435  0.17690744     0.12860
H1753       H  0.44077674  0.50224326  0.23309232     0.12870
C1754       C  0.40489692  0.50490032  0.23823107     0.62400
F1755       F  0.43120997  0.47926845  0.15865593    -0.22770
F1756       F  0.45515905  0.47133812  0.17490623    -0.20100
F1757       F  0.45222732  0.49995422  0.16438860    -0.19770
F1758       F  0.39620549  0.48975965  0.24480262    -0.19820
F1759       F  0.39265535  0.51862097  0.23531463    -0.20150
F1760       F  0.41672048  0.51068735  0.25144864    -0.22820
C1761       C  0.08407881  0.49032624  0.29220472    -0.05660
C1762       C  0.09093569  0.49466173  0.30937650     0.00270
C1763       C  0.07906981  0.50173518  0.32258276    -0.08300
C1764       C  0.06064793  0.50209770  0.31880172    -0.05680
C1765       C  0.05349034  0.49667211  0.30208056     0.00260
C1766       C  0.06555540  0.49150412  0.28814415    -0.08210
C1767       C  0.05914291  0.48706188  0.26920896     0.62170
H1768       H  0.09337512  0.48557803  0.28203555     0.12860
H1769       H  0.05160301  0.50668816  0.32927619     0.12870
C1770       C  0.08520525  0.50914247  0.34072301     0.62400
F1771       F  0.07321417  0.48247211  0.25790018    -0.22770
F1772       F  0.05068711  0.50196715  0.26181699    -0.20100
F1773       F  0.04734460  0.47263112  0.26974567    -0.19770
F1774       F  0.10159614  0.51781348  0.33924594    -0.19820
F1775       F  0.08634294  0.49522732  0.35313119    -0.20150
F1776       F  0.07311557  0.52170231  0.34732329    -0.22820
C1777       C  0.17760889  0.50528451  0.42232612    -0.05660
C1778       C  0.19047742  0.49535094  0.41279073     0.00270
C1779       C  0.20440650  0.48649042  0.42232141    -0.08300
C1780       C  0.20455750  0.48743206  0.44132404    -0.05680
C1781       C  0.19127953  0.49685332  0.45095880     0.00260
C1782       C  0.17784001  0.50644925  0.44126615    -0.08210
C1783       C  0.16394426  0.51818471  0.45064120     0.62170
H1784       H  0.16713516  0.51200641  0.41471791     0.12860
H1785       H  0.21487675  0.48041002  0.44885998     0.12870
C1786       C  0.21864573  0.47557133  0.41256622     0.62400
F1787       F  0.15449193  0.52874461  0.43847764    -0.22770
F1788       F  0.17232168  0.52967877  0.46271864    -0.20100
F1789       F  0.15170771  0.50742932  0.45970273    -0.19770
F1790       F  0.22910758  0.48690186  0.40209687    -0.19820
F1791       F  0.21057743  0.46277944  0.40164416    -0.20150
F1792       F  0.22988060  0.46664360  0.42449463    -0.22820
C1793       C  0.23136329  0.50386056  0.25335715    -0.05660
C1794       C  0.23542766  0.49750020  0.27077402     0.00270
C1795       C  0.25223182  0.48887704  0.27374171    -0.08300
C1796       C  0.26410585  0.48699563  0.25908651    -0.05680
C1797       C  0.26005523  0.49336821  0.24167376     0.00260
C1798       C  0.24327352  0.50203383  0.23871295    -0.08210
C1799       C  0.23756912  0.50945027  0.22044304     0.62170
H1800       H  0.21851121  0.51032923  0.25123739     0.12860
H1801       H  0.27693892  0.48049256  0.26120521     0.12870
C1802       C  0.25802797  0.48158984  0.29203862     0.62400
F1803       F  0.22264569  0.52050016  0.22179855    -0.22770
F1804       F  0.23307540  0.49531835  0.20914772    -0.20100
F1805       F  0.25121301  0.51963748  0.21287884    -0.19770
F1806       F  0.24445496  0.47139273  0.29971490    -0.19820
F1807       F  0.26251505  0.49580972  0.30322744    -0.20150
F1808       F  0.27299144  0.47059202  0.29070649    -0.22820
C1809       C  0.91645371  0.17931723  0.00097359    -0.05660
C1810       C  0.90566411  0.19465859  0.00338267     0.00270
C1811       C  0.91440114  0.21144063  0.00693987    -0.08300
C1812       C  0.93344421  0.21195707  0.00741898    -0.05680
C1813       C  0.94400183  0.19626336  0.00580698     0.00260
C1814       C  0.93504215  0.17936329  0.00357093    -0.08210
C1815       C  0.94442202  0.16104455  0.00442339     0.62170
H1816       H  0.91017534  0.16676462  0.99716563     0.12860
H1817       H  0.94025419  0.22473351  0.00934590     0.12870
C1818       C  0.90413437  0.22880109  0.01023647     0.62400
F1819       F  0.93247586  0.14671919  0.00346628    -0.22770
F1820       F  0.95346929  0.15935940  0.02066108    -0.20100
F1821       F  0.95622499  0.15924588  0.99019295    -0.19770
F1822       F  0.89099192  0.22605296  0.02314798    -0.19820
F1823       F  0.89650264  0.23464327  0.99426072    -0.20150
F1824       F  0.91522984  0.24247151  0.01644644    -0.22820
C1825       C  0.93758447  0.00250595  0.18916394    -0.05660
C1826       C  0.94402001  0.99662026  0.20604261     0.00270
C1827       C  0.93139222  0.99205484  0.21968868    -0.08300
C1828       C  0.91290540  0.99233079  0.21532680    -0.05680
C1829       C  0.90666930  0.99742877  0.19810031     0.00260
C1830       C  0.91926539  0.00343174  0.18501924    -0.08210
C1831       C  0.91396968  0.01108129  0.16668546     0.62170
H1832       H  0.94714188  0.00650705  0.17889069     0.12860
H1833       H  0.90310568  0.98829026  0.22534826     0.12870
C1834       C  0.93717673  0.98678770  0.23863125     0.62400
F1835       F  0.92743979  0.02188205  0.15958923    -0.22770
F1836       F  0.89878260  0.02171385  0.16803799    -0.20100
F1837       F  0.91099938  0.99711295  0.15469856    -0.19770
F1838       F  0.94604935  0.00111472  0.24663778    -0.19820
F1839       F  0.94841109  0.97194714  0.23794294    -0.20150
F1840       F  0.92267254  0.98237584  0.24947922    -0.22820
C1841       C  0.01400345  0.43152947  0.30659459    -0.05660
C1842       C  0.99812263  0.44012015  0.30124371     0.00270
C1843       C  0.98241922  0.42981646  0.29812133    -0.08300
C1844       C  0.98293932  0.41106884  0.30135278    -0.05680
C1845       C  0.99861358  0.40261827  0.30758129     0.00260
C1846       C  0.01458883  0.41278686  0.30961268    -0.08210
C1847       C  0.03217611  0.40380813  0.31472208     0.62170
H1848       H  0.02587719  0.43972141  0.30874522     0.12860
H1849       H  0.97095817  0.40294379  0.29962077     0.12870
C1850       C  0.96511541  0.43876142  0.29205715     0.62400
F1851       F  0.04641070  0.41584630  0.31419756    -0.22770
F1852       F  0.03581189  0.38995854  0.30275689    -0.20100
F1853       F  0.03105808  0.39685129  0.33200788    -0.19770
F1854       F  0.96778759  0.44728475  0.27564480    -0.19820
F1855       F  0.95981916  0.45139118  0.30471314    -0.20150
F1856       F  0.95133411  0.42636737  0.28999517    -0.22820
C1857       C  0.01647895  0.19677938  0.06999120    -0.05660
C1858       C  0.00006914  0.19958469  0.06121253     0.00270
C1859       C  0.98402373  0.20089375  0.07132345    -0.08300
C1860       C  0.98485326  0.19848215  0.09015636    -0.05680
C1861       C  0.00117194  0.19477138  0.09883510     0.00260
C1862       C  0.01732789  0.19445151  0.08880384    -0.08210
C1863       C  0.03532133  0.19169367  0.09800109     0.62170
H1864       H  0.02857305  0.19596752  0.06190522     0.12860
H1865       H  0.97269629  0.19881408  0.09817614     0.12870
C1866       C  0.96614224  0.20425281  0.06209492     0.62400
F1867       F  0.04947046  0.19336308  0.08598952    -0.22770
F1868       F  0.03605402  0.17464975  0.10560026    -0.20100
F1869       F  0.03754366  0.20449691  0.11140232    -0.19770
F1870       F  0.96253896  0.19042555  0.05009100    -0.19820
F1871       F  0.96679009  0.22044874  0.05278256    -0.20150
F1872       F  0.95215242  0.20512330  0.07436738    -0.22820
C1873       C  0.00836277  0.08135932  0.21328225    -0.05660
C1874       C  0.99624543  0.08855471  0.20066542     0.00270
C1875       C  0.98373689  0.07699188  0.19203516    -0.08300
C1876       C  0.98494881  0.05832291  0.19510201    -0.05680
C1877       C  0.99766183  0.05098741  0.20697946     0.00260
C1878       C  0.00922666  0.06265288  0.21674308    -0.08210
C1879       C  0.02276315  0.05540800  0.23025909     0.62170
H1880       H  0.01746126  0.09051710  0.22009405     0.12860
H1881       H  0.97595844  0.04920333  0.18807817     0.12870
C1882       C  0.96881007  0.08420651  0.18004733     0.62400
F1883       F  0.03364308  0.06895737  0.23707544    -0.22770
F1884       F  0.03366436  0.04271918  0.22207049    -0.20100
F1885       F  0.01384038  0.04750001  0.24461603    -0.19770
F1886       F  0.97572800  0.08965557  0.16362443    -0.19820
F1887       F  0.96045513  0.09866844  0.18832868    -0.20150
F1888       F  0.95584935  0.07119071  0.17675334    -0.22820
C1889       C  0.01108835  0.23587048  0.25136910    -0.05660
C1890       C  0.99486686  0.23211104  0.24254476     0.00270
C1891       C  0.97914143  0.24173504  0.24717271    -0.08300
C1892       C  0.98023246  0.25512596  0.26056724    -0.05680
C1893       C  0.99645028  0.25889560  0.26938484     0.00260
C1894       C  0.01218410  0.24927861  0.26475523    -0.08210
C1895       C  0.03005551  0.25350718  0.27364656     0.62170
H1896       H  0.02292697  0.22830447  0.24754442     0.12860
H1897       H  0.96839795  0.26270944  0.26436996     0.12870
C1898       C  0.96128645  0.23756635  0.23822643     0.62400
F1899       F  0.04387850  0.24330851  0.26646644    -0.22770
F1900       F  0.02907454  0.24988135  0.29193313    -0.20100
F1901       F  0.03420312  0.27155746  0.27114058    -0.19770
F1902       F  0.95711267  0.21951199  0.24065286    -0.19820
F1903       F  0.96231531  0.24126469  0.21995659    -0.20150
F1904       F  0.94746209  0.24775546  0.24541559    -0.22820
C1905       C  0.20832905  0.99375591  0.09267139    -0.05660
C1906       C  0.19060976  0.99451510  0.09930714     0.00270
C1907       C  0.17633576  0.99696120  0.08682549    -0.08300
C1908       C  0.18028065  0.99716029  0.06833406    -0.05680
C1909       C  0.19788139  0.99593123  0.06149237     0.00260
C1910       C  0.21232807  0.99466776  0.07400581    -0.08210
C1911       C  0.23182242  0.99430441  0.06799400     0.62170
H1912       H  0.21913517  0.99226331  0.10232848     0.12860
H1913       H  0.16918556  0.99828171  0.05898108     0.12870
C1914       C  0.15683683  0.99966432  0.09236075     0.62400
F1915       F  0.24353274  0.99344338  0.08249696    -0.22770
F1916       F  0.23576683  0.00986723  0.05841056    -0.20100
F1917       F  0.23486531  0.97933872  0.05728037    -0.19770
F1918       F  0.15561725  0.01081382  0.10726524    -0.19820
F1919       F  0.14902650  0.98311332  0.09598638    -0.20150
F1920       F  0.14695627  0.00773819  0.07871735    -0.22820
C1921       C  0.08323665  0.00192963  0.19100547    -0.05660
C1922       C  0.09321947  0.99531255  0.20562102     0.00270
C1923       C  0.08410390  0.99065500  0.22184776    -0.08300
C1924       C  0.06515921  0.99160755  0.22221185    -0.05680
C1925       C  0.05511367  0.99720122  0.20712618     0.00260
C1926       C  0.06444123  0.00310862  0.19135840    -0.08210
C1927       C  0.05496728  0.01061900  0.17472350     0.62170
H1928       H  0.09039826  0.00593245  0.17892452     0.12860
H1929       H  0.05799162  0.98764534  0.23430274     0.12870
C1930       C  0.09401846  0.98453423  0.23869062     0.62400
F1931       F  0.06690550  0.01818292  0.16252226    -0.22770
F1932       F  0.04303699  0.02402320  0.17971348    -0.20100
F1933       F  0.04594097  0.99689562  0.16587441    -0.19770
F1934       F  0.10314829  0.99900758  0.24606173    -0.19820
F1935       F  0.10596466  0.97088111  0.23453886    -0.20150
F1936       F  0.08239194  0.97800950  0.25175732    -0.22820
C1937       C  0.23303053  0.00483261  0.25802781    -0.05660
C1938       C  0.23775628  0.99973426  0.24036459     0.00270
C1939       C  0.25506973  0.99224435  0.23726075    -0.08300
C1940       C  0.26677658  0.99022542  0.25203556    -0.05680
C1941       C  0.26187360  0.99510454  0.26965591     0.00260
C1942       C  0.24462051  0.00252178  0.27280164    -0.08210
C1943       C  0.23820336  0.00814548  0.29145571     0.62170
H1944       H  0.21989795  0.01062715  0.26027806     0.12860
H1945       H  0.28011209  0.98482101  0.24991194     0.12870
C1946       C  0.26157730  0.98634915  0.21874301     0.62400
F1947       F  0.22249995  0.01810118  0.29065180    -0.22770
F1948       F  0.25101009  0.01871080  0.29990008    -0.20100
F1949       F  0.23471765  0.99294725  0.30172151    -0.19770
F1950       F  0.26520017  0.00141344  0.20832167    -0.19820
F1951       F  0.24882888  0.97564408  0.21039066    -0.20150
F1952       F  0.27725133  0.97635926  0.21979451    -0.22820
C1953       C  0.28451257  0.43026190  0.99890336    -0.05660
C1954       C  0.29733378  0.44025619  0.00860896     0.00270
C1955       C  0.31090108  0.43096694  0.01842276    -0.08300
C1956       C  0.31218259  0.41215989  0.01666885    -0.05680
C1957       C  0.30009775  0.40231449  0.00609044     0.00260
C1958       C  0.28560603  0.41128468  0.99754585    -0.08210
C1959       C  0.27180837  0.40096088  0.98655189     0.62170
H1960       H  0.27401433  0.43749575  0.99183098     0.12860
H1961       H  0.32295650  0.40494568  0.02335065     0.12870
C1962       C  0.32400390  0.44064174  0.03086558     0.62400
F1963       F  0.25955053  0.41239343  0.97837669    -0.22770
F1964       F  0.26240154  0.38931293  0.99767654    -0.20100
F1965       F  0.28029265  0.39113759  0.97318167    -0.19770
F1966       F  0.31491156  0.45286267  0.04160862    -0.19820
F1967       F  0.33686927  0.44959243  0.02078593    -0.20150
F1968       F  0.33278175  0.42867483  0.04221064    -0.22820
C1969       C  0.18276117  0.07951357  0.99869260    -0.05660
C1970       C  0.19777860  0.08967097  0.00378745     0.00270
C1971       C  0.21408323  0.08060720  0.00783645    -0.08300
C1972       C  0.21432451  0.06150882  0.00749942    -0.05680
C1973       C  0.19893533  0.05127536  0.00325600     0.00260
C1974       C  0.18288500  0.06057767  0.99827430    -0.08210
C1975       C  0.16567162  0.05097060  0.99258865     0.62170
H1976       H  0.17056503  0.08670158  0.99531513     0.12860
H1977       H  0.22656271  0.05439969  0.01088445     0.12870
C1978       C  0.23105772  0.09082543  0.01283297     0.62400
F1979       F  0.15286125  0.06287001  0.98611188    -0.22770
F1980       F  0.15822882  0.04211416  0.00725988    -0.20100
F1981       F  0.16928139  0.03878576  0.97891970    -0.19770
F1982       F  0.22751722  0.10310110  0.02642424    -0.19820
F1983       F  0.23756020  0.09982466  0.99784154    -0.20150
F1984       F  0.24443748  0.07935183  0.01889240    -0.22820
C1985       C  0.06240339  0.17895061  0.00249965    -0.05660
C1986       C  0.05558183  0.19643008  0.00545481     0.00270
C1987       C  0.06801550  0.21063976  0.00869504    -0.08300
C1988       C  0.08651748  0.20641797  0.01005864    -0.05680
C1989       C  0.09316846  0.18871498  0.00781448     0.00260
C1990       C  0.08077380  0.17480279  0.00320788    -0.08210
C1991       C  0.08619454  0.15545465  0.99892617     0.62170
H1992       H  0.05307812  0.16810052  0.99968908     0.12860
H1993       H  0.09599788  0.21704393  0.01318833     0.12870
C1994       C  0.06203551  0.23012059  0.01076268     0.62400
F1995       F  0.07292989  0.14646730  0.98936788    -0.22770
F1996       F  0.08889989  0.14604023  0.01482157    -0.20100
F1997       F  0.10149474  0.15507999  0.98837173    -0.19770
F1998       F  0.05066769  0.23168098  0.02543731    -0.19820
F1999       F  0.05325698  0.23565842  0.99525197    -0.20150
F2000       F  0.07640240  0.24169545  0.01346698    -0.22820
C2001       C  0.26608709  0.24316382  0.01517220    -0.05660
C2002       C  0.26229817  0.26059423  0.00874960     0.00270
C2003       C  0.24558767  0.26382795  0.00001140    -0.08300
C2004       C  0.23339852  0.24941026  0.99823641    -0.05680
C2005       C  0.23721701  0.23196662  0.00459025     0.00260
C2006       C  0.25388936  0.22874729  0.01339022    -0.08210
C2007       C  0.25911135  0.21045522  0.02111279     0.62170
H2008       H  0.27891160  0.24086798  0.02166471     0.12860
H2009       H  0.22058376  0.25169483  0.99172459     0.12870
C2010       C  0.24032095  0.28211459  0.99228869     0.62400
F2011       F  0.27355776  0.21179516  0.03281230    -0.22770
F2012       F  0.26408860  0.19904532  0.00725935    -0.20100
F2013       F  0.24498836  0.20300981  0.03070441    -0.19770
F2014       F  0.25434691  0.28949404  0.98250455    -0.19820
F2015       F  0.23550968  0.29357603  0.00616106    -0.20150
F2016       F  0.22574269  0.28078863  0.98075617    -0.22820
C2017       C  0.31650728  0.98543997  0.42329675    -0.05660
C2018       C  0.30202284  0.99086767  0.41251443     0.00270
C2019       C  0.28588341  0.99650811  0.42110678    -0.08300
C2020       C  0.28528450  0.99700486  0.44021139    -0.05680
C2021       C  0.30021898  0.99243645  0.45092651     0.00260
C2022       C  0.31619191  0.98636575  0.44219050    -0.08210
C2023       C  0.33317620  0.98093716  0.45235898     0.62170
H2024       H  0.32852072  0.98068627  0.41663821     0.12860
H2025       H  0.27313367  0.00131408  0.44695636     0.12870
C2026       C  0.26938870  0.00220345  0.41049591     0.62400
F2027       F  0.34610579  0.97370530  0.44106206    -0.22770
F2028       F  0.32917192  0.96797068  0.46522174    -0.20100
F2029       F  0.34071127  0.99596016  0.46049296    -0.19770
F2030       F  0.26163383  0.98721066  0.40259866    -0.19820
F2031       F  0.27401340  0.01465075  0.39734444    -0.20150
F2032       F  0.25657098  0.01011147  0.42146317    -0.22820
C2033       C  0.93390032  0.27899887  0.50063045    -0.05660
C2034       C  0.94401568  0.29393871  0.50646928     0.00270
C2035       C  0.93483008  0.30974623  0.51235197    -0.08300
C2036       C  0.91607964  0.31034522  0.51080341    -0.05680
C2037       C  0.90605936  0.29588359  0.50391472     0.00260
C2038       C  0.91500845  0.27957225  0.49936352    -0.08210
C2039       C  0.90498753  0.26285606  0.49303891     0.62170
H2040       H  0.94097687  0.26685508  0.49673406     0.12860
H2041       H  0.90900124  0.32247973  0.51473140     0.12870
C2042       C  0.94441904  0.32612184  0.52025366     0.62400
F2043       F  0.91655026  0.24972973  0.48661112    -0.22770
F2044       F  0.89323804  0.26721036  0.47925091    -0.20100
F2045       F  0.89562853  0.25544461  0.50735696    -0.19770
F2046       F  0.95376925  0.33510227  0.50681943    -0.19820
F2047       F  0.95608847  0.32073163  0.53376269    -0.20150
F2048       F  0.93252970  0.33832929  0.52780240    -0.22820
C2049       C  0.98396325  0.28787311  0.44105266    -0.05660
C2050       C  0.99987680  0.29203488  0.45026207     0.00270
C2051       C  0.01512723  0.29798547  0.44054577    -0.08300
C2052       C  0.01357138  0.30076575  0.42182585    -0.05680
C2053       C  0.99742341  0.29739222  0.41269722     0.00260
C2054       C  0.98245681  0.29045649  0.42226851    -0.08210
C2055       C  0.96482636  0.28651158  0.41277951     0.62170
H2056       H  0.97252762  0.28321249  0.44881581     0.12860
H2057       H  0.02489714  0.30586136  0.41417367     0.12870
C2058       C  0.03297321  0.30110950  0.44996034     0.62400
F2059       F  0.95173246  0.28068174  0.42471917    -0.22770
F2060       F  0.96732411  0.27313480  0.40003507    -0.20100
F2061       F  0.95865103  0.30197533  0.40432600    -0.19770
F2062       F  0.03792940  0.28562836  0.45918096    -0.19820
F2063       F  0.03150487  0.31522534  0.46205551    -0.20150
F2064       F  0.04648796  0.30529201  0.43781681    -0.22820
C2065       C  0.29034701  0.08224101  0.51230319    -0.05660
C2066       C  0.30788481  0.08912842  0.51025864     0.00270
C2067       C  0.32178406  0.07710102  0.50500465    -0.08300
C2068       C  0.31783293  0.05863457  0.50358433    -0.05680
C2069       C  0.30053396  0.05151471  0.50646452     0.00260
C2070       C  0.28628428  0.06370120  0.51022360    -0.08210
C2071       C  0.26693862  0.05745441  0.51213754     0.62170
H2072       H  0.27974945  0.09156368  0.51585562     0.12860
H2073       H  0.32865916  0.04947995  0.50030736     0.12870
C2074       C  0.34086403  0.08309813  0.50071085     0.62400
F2075       F  0.25535597  0.07171124  0.51533722    -0.22770
F2076       F  0.26543759  0.04550800  0.52643376    -0.20100
F2077       F  0.26145470  0.04913508  0.49635510    -0.19770
F2078       F  0.35037469  0.08529251  0.51657648    -0.19820
F2079       F  0.34086484  0.09898542  0.49087246    -0.20150
F2080       F  0.34983859  0.07036009  0.49044327    -0.22820
C2081       C  0.43369539  0.21037416  0.50770926    -0.05660
C2082       C  0.44394567  0.19445018  0.50635808     0.00270
C2083       C  0.43470487  0.17757778  0.50511708    -0.08300
C2084       C  0.41585145  0.17754345  0.50526684    -0.05680
C2085       C  0.40563325  0.19331555  0.50729607     0.00260
C2086       C  0.41472945  0.21018890  0.50832208    -0.08210
C2087       C  0.40484156  0.22802058  0.51013275     0.62170
H2088       H  0.44070043  0.22317019  0.50837106     0.12860
H2089       H  0.40879415  0.16484591  0.50393942     0.12870
C2090       C  0.44424987  0.15940416  0.50389713     0.62400
F2091       F  0.41636828  0.24207647  0.51438623    -0.22770
F2092       F  0.39212442  0.22696059  0.52369546    -0.20100
F2093       F  0.39667570  0.23225739  0.49392382    -0.19770
F2094       F  0.45458251  0.15667486  0.51919008    -0.19820
F2095       F  0.45492469  0.15890069  0.48862051    -0.20150
F2096       F  0.43235676  0.14505415  0.50277583    -0.22820
C2097       C  0.06238707  0.30989405  0.50302958    -0.05660
C2098       C  0.05508637  0.29259532  0.50603144     0.00270
C2099       C  0.06705031  0.27801004  0.50937819    -0.08300
C2100       C  0.08556349  0.28181227  0.51132169    -0.05680
C2101       C  0.09256375  0.29938070  0.50931571     0.00260
C2102       C  0.08081400  0.31350690  0.50402141    -0.08210
C2103       C  0.08709448  0.33244974  0.49905660     0.62170
H2104       H  0.05347166  0.32098348  0.49984956     0.12860
H2105       H  0.09477244  0.27102433  0.51469790     0.12870
C2106       C  0.06062587  0.25858127  0.51081563     0.62400
F2107       F  0.07481370  0.34102818  0.48792821    -0.22770
F2108       F  0.10318954  0.33194990  0.48977110    -0.20100
F2109       F  0.08887824  0.34271224  0.51452054    -0.19770
F2110       F  0.05202669  0.25367961  0.49500228    -0.19820
F2111       F  0.04896898  0.25673477  0.52521644    -0.20150
F2112       F  0.07470572  0.24667066  0.51345457    -0.22820
C2113       C  0.17505369  0.41096042  0.50442323    -0.05660
C2114       C  0.19095499  0.40133987  0.50750319     0.00270
C2115       C  0.20725354  0.41103788  0.50979346    -0.08300
C2116       C  0.20681414  0.43008380  0.50917629    -0.05680
C2117       C  0.19076926  0.43979324  0.50653880     0.00260
C2118       C  0.17447441  0.42992183  0.50399190    -0.08210
C2119       C  0.15633188  0.43892297  0.50091733     0.62170
H2120       H  0.16280752  0.40332543  0.50248347     0.12860
H2121       H  0.21917975  0.43757185  0.51091684     0.12870
C2122       C  0.22505555  0.40163132  0.51318184     0.62400
F2123       F  0.14278169  0.42649014  0.49777526    -0.22770
F2124       F  0.15717571  0.45015909  0.48599364    -0.20100
F2125       F  0.15150796  0.44870654  0.51605601    -0.19770
F2126       F  0.23088593  0.39354101  0.49745471    -0.19820
F2127       F  0.22321997  0.38876500  0.52661942    -0.20150
F2128       F  0.23824073  0.41365000  0.51862400    -0.22820
C2129       C  0.26407994  0.24647448  0.51211527    -0.05660
C2130       C  0.26120523  0.23092554  0.50167532     0.00270
C2131       C  0.24542685  0.22952185  0.49102724    -0.08300
C2132       C  0.23312895  0.24388254  0.49124256    -0.05680
C2133       C  0.23602978  0.25945975  0.50158730     0.00260
C2134       C  0.25165237  0.26076298  0.51248362    -0.08210
C2135       C  0.25512713  0.27675411  0.52485540     0.62170
H2136       H  0.27623310  0.24730663  0.52010858     0.12860
H2137       H  0.22097014  0.24304030  0.48326114     0.12870
C2138       C  0.24150184  0.21323239  0.47919906     0.62400
F2139       F  0.26896639  0.27332163  0.53686312    -0.22770
F2140       F  0.23993615  0.28060627  0.53487162    -0.20100
F2141       F  0.25990843  0.29167829  0.51472977    -0.19770
F2142       F  0.23658857  0.19873525  0.48987348    -0.19820
F2143       F  0.25645711  0.20879353  0.46907891    -0.20150
F2144       F  0.22753949  0.21652889  0.46730350    -0.22820
C2145       C  0.56161454  0.30839283  0.99648887    -0.05660
C2146       C  0.55493520  0.29243973  0.00434231     0.00270
C2147       C  0.56733819  0.27902834  0.01004403    -0.08300
C2148       C  0.58593931  0.28282718  0.00880583    -0.05680
C2149       C  0.59240927  0.29914408  0.00145239     0.00260
C2150       C  0.57996277  0.31158978  0.99405126    -0.08210
C2151       C  0.58531058  0.32822938  0.98322320     0.62170
H2152       H  0.55227660  0.31859704  0.99186973     0.12860
H2153       H  0.59560192  0.27321258  0.01397769     0.12870
C2154       C  0.56115373  0.26109696  0.01781484     0.62400
F2155       F  0.57252682  0.33199867  0.97017089    -0.22770
F2156       F  0.60141249  0.32574239  0.97428189    -0.20100
F2157       F  0.58655597  0.34296957  0.99458850    -0.19770
F2158       F  0.55192666  0.25149407  0.00476474    -0.19820
F2159       F  0.55008053  0.26402756  0.03250917    -0.20150
F2160       F  0.57544563  0.25058375  0.02349980    -0.22820
C2161       C  0.43700383  0.31247056  0.01013996    -0.05660
C2162       C  0.44366899  0.29508902  0.00640507     0.00270
C2163       C  0.43115178  0.28116346  0.00232383    -0.08300
C2164       C  0.41274165  0.28564177  0.00084573    -0.05680
C2165       C  0.40626447  0.30326991  0.00385612     0.00260
C2166       C  0.41867264  0.31679642  0.00940802    -0.08210
C2167       C  0.41324482  0.33585277  0.01479695     0.62170
H2168       H  0.44640481  0.32304901  0.01366323     0.12860
H2169       H  0.40319005  0.27529940  0.99705158     0.12870
C2170       C  0.43693167  0.26171467  0.99947462     0.62400
F2171       F  0.42630712  0.34405073  0.02529453    -0.22770
F2172       F  0.39764908  0.33565679  0.02491615    -0.20100
F2173       F  0.41100376  0.34631003  0.99949119    -0.19770
F2174       F  0.44524249  0.25532458  0.01491946    -0.19820
F2175       F  0.44863311  0.26067793  0.98501825    -0.20150
F2176       F  0.42249128  0.25048089  0.99587839    -0.22820
C2177       C  0.56134765  0.99458431  0.32284835    -0.05660
C2178       C  0.55469479  0.99381587  0.30505766     0.00270
C2179       C  0.56726225  0.99226551  0.29072219    -0.08300
C2180       C  0.58568751  0.99019762  0.29499561    -0.05680
C2181       C  0.59218559  0.99045518  0.31292675     0.00260
C2182       C  0.57965967  0.99355069  0.32710494    -0.08210
C2183       C  0.58482652  0.99597909  0.34685303     0.62170
H2184       H  0.55195670  0.99600102  0.33387923     0.12860
H2185       H  0.59520915  0.98818775  0.28418021     0.12870
C2186       C  0.56154572  0.99292889  0.27105315     0.62400
F2187       F  0.57135963  0.00442885  0.35657678    -0.22770
F2188       F  0.59995536  0.00669641  0.34845850    -0.20100
F2189       F  0.58762182  0.97926898  0.35470083    -0.19770
F2190       F  0.55266102  0.00897617  0.26763983    -0.19820
F2191       F  0.55037046  0.97850502  0.26723673    -0.20150
F2192       F  0.57608676  0.99207149  0.25943820    -0.22820
C2193       C  0.43269896  0.99348682  0.29063137    -0.05660
C2194       C  0.44348981  0.99917946  0.30513009     0.00270
C2195       C  0.43497664  0.00627678  0.32085748    -0.08300
C2196       C  0.41617804  0.00711131  0.32134179    -0.05680
C2197       C  0.40530758  0.00040465  0.30741614     0.00260
C2198       C  0.41372117  0.99370551  0.29150367    -0.08210
C2199       C  0.40310720  0.98656181  0.27552892     0.62170
H2200       H  0.43930734  0.98839839  0.27866025     0.12860
H2201       H  0.40968276  0.01268050  0.33313771     0.12870
C2202       C  0.44525478  0.01265631  0.33751536     0.62400
F2203       F  0.41402821  0.97797396  0.26309584    -0.22770
F2204       F  0.39482863  0.00076644  0.26674940    -0.20100
F2205       F  0.39041143  0.97416754  0.28125689    -0.19770
F2206       F  0.45821770  0.02514766  0.33271643    -0.19820
F2207       F  0.45319712  0.99803148  0.34597387    -0.20150
F2208       F  0.43417003  0.02085287  0.35006685    -0.22820
C2209       C  0.48244485  0.29510357  0.09024691    -0.05660
C2210       C  0.49874510  0.29594592  0.09965688     0.00270
C2211       C  0.51516881  0.29361768  0.09034419    -0.08300
C2212       C  0.51474167  0.29128532  0.07150212    -0.05680
C2213       C  0.49845900  0.29113562  0.06204153     0.00260
C2214       C  0.48202247  0.29258224  0.07145037    -0.08210
C2215       C  0.46421750  0.29171229  0.06152706     0.62170
H2216       H  0.47006431  0.29683758  0.09771709     0.12860
H2217       H  0.52712369  0.29008383  0.06392448     0.12870
C2218       C  0.53299807  0.29416750  0.10023889     0.62400
F2219       F  0.44977924  0.29276044  0.07324530    -0.22770
F2220       F  0.46299071  0.27556890  0.05222756    -0.20100
F2221       F  0.46302094  0.30589101  0.04941453    -0.19770
F2222       F  0.53356825  0.28048403  0.11295158    -0.19820
F2223       F  0.53497762  0.31062987  0.10881507    -0.20150
F2224       F  0.54737127  0.29190711  0.08860984    -0.22820
C2225       C  0.50579142  0.41304878  0.18518630    -0.05660
C2226       C  0.50162808  0.40244256  0.20037689     0.00270
C2227       C  0.49756785  0.41129092  0.21692255    -0.08300
C2228       C  0.49743504  0.43034374  0.21728900    -0.05680
C2229       C  0.50095796  0.44092097  0.20187252     0.00260
C2230       C  0.50531094  0.43201709  0.18541262    -0.08210
C2231       C  0.50942013  0.44211628  0.16794836     0.62170
H2232       H  0.50934462  0.40623675  0.17279345     0.12860
H2233       H  0.49439953  0.43718121  0.22982333     0.12870
C2234       C  0.49330788  0.40111240  0.23423914     0.62400
F2235       F  0.51437694  0.43059844  0.15411233    -0.22770
F2236       F  0.52346800  0.45405820  0.17064137    -0.20100
F2237       F  0.49431577  0.45136125  0.16223212    -0.19770
F2238       F  0.50883607  0.39346956  0.24099099    -0.19820
F2239       F  0.48058527  0.38787309  0.23106810    -0.20150
F2240       F  0.48651460  0.41240389  0.24746091    -0.22820
C2241       C  0.48701884  0.08077246  0.30058050    -0.05660
C2242       C  0.50214504  0.08863255  0.30867740     0.00270
C2243       C  0.51732054  0.07788008  0.31270787    -0.08300
C2244       C  0.51616266  0.05913391  0.31012927    -0.05680
C2245       C  0.50068615  0.05112829  0.30296995     0.00260
C2246       C  0.48608219  0.06204658  0.29744928    -0.08210
C2247       C  0.46947428  0.05390084  0.28878770     0.62170
H2248       H  0.47575797  0.08937854  0.29718991     0.12860
H2249       H  0.52730863  0.05050657  0.31385847     0.12870
C2250       C  0.53478874  0.08622336  0.31919918     0.62400
F2251       F  0.45658201  0.06684757  0.28510257    -0.22770
F2252       F  0.46195170  0.04121645  0.30020270    -0.20100
F2253       F  0.47409638  0.04566267  0.27271369    -0.19770
F2254       F  0.53264479  0.09318373  0.33634915    -0.19820
F2255       F  0.53988695  0.09993548  0.30755394    -0.20150
F2256       F  0.54854524  0.07367625  0.31976035    -0.22820
C2257       C  0.51316094  0.20033428  0.42128492    -0.05660
C2258       C  0.49778662  0.19305499  0.41311768     0.00270
C2259       C  0.48218355  0.18979776  0.42352609    -0.08300
C2260       C  0.48295077  0.19266799  0.44224124    -0.05680
C2261       C  0.49861863  0.19900710  0.45055016     0.00260
C2262       C  0.51385844  0.20336605  0.44002050    -0.08210
C2263       C  0.53091647  0.21045066  0.44870280     0.62170
H2264       H  0.52482821  0.20298125  0.41295371     0.12860
H2265       H  0.47143613  0.18956292  0.45064060     0.12870
C2266       C  0.46479034  0.18353204  0.41486451     0.62400
F2267       F  0.54427116  0.21361118  0.43608167    -0.22770
F2268       F  0.53728255  0.19798729  0.46105834    -0.20100
F2269       F  0.52737001  0.22652407  0.45747909    -0.19770
F2270       F  0.46682247  0.16629174  0.40806923    -0.19820
F2271       F  0.46019830  0.19514952  0.40096615    -0.20150
F2272       F  0.45075121  0.18325319  0.42711455    -0.22820
C2273       C  0.51672868  0.23911903  0.26540051    -0.05660
C2274       C  0.49982843  0.23230462  0.27016920     0.00270
C2275       C  0.48416990  0.23903805  0.26176075    -0.08300
C2276       C  0.48599643  0.25245923  0.24844326    -0.05680
C2277       C  0.50291211  0.25923899  0.24363063     0.00260
C2278       C  0.51855823  0.25254647  0.25210214    -0.08210
C2279       C  0.53703992  0.25936394  0.24680201     0.62170
H2280       H  0.52848268  0.23371645  0.27211140     0.12860
H2281       H  0.47424354  0.25780687  0.24168648     0.12870
C2282       C  0.46570421  0.23217367  0.26707069     0.62400
F2283       F  0.55053149  0.25059388  0.25620498    -0.22770
F2284       F  0.53834255  0.27763373  0.25040362    -0.20100
F2285       F  0.53979380  0.25651604  0.22855742    -0.19770
F2286       F  0.46296259  0.23500475  0.28532036    -0.19820
F2287       F  0.46443716  0.21389800  0.26347310    -0.20150
F2288       F  0.45218606  0.24092066  0.25768418    -0.22820
C2289       C  0.43822500  0.81254614  0.49700936    -0.05660
C2290       C  0.44491808  0.79584397  0.50305461     0.00270
C2291       C  0.43246733  0.78207517  0.50787854    -0.08300
C2292       C  0.41392720  0.78610772  0.50749707    -0.05680
C2293       C  0.40737473  0.80311113  0.50209663     0.00260
C2294       C  0.41981932  0.81637198  0.49600612    -0.08210
C2295       C  0.41436399  0.83464173  0.48832081     0.62170
H2296       H  0.44764609  0.82294862  0.49299052     0.12860
H2297       H  0.40432712  0.77598345  0.51176688     0.12870
C2298       C  0.43845566  0.76331514  0.51360118     0.62400
F2299       F  0.42770983  0.84178593  0.47740688    -0.22770
F2300       F  0.41149621  0.84667391  0.50226943    -0.20100
F2301       F  0.39911354  0.83316505  0.47777802    -0.19770
F2302       F  0.44951472  0.76447557  0.52856023    -0.19820
F2303       F  0.44755984  0.75513707  0.49954586    -0.20150
F2304       F  0.42407021  0.75231956  0.51808571    -0.22820
C2305       C  0.31513778  0.91183449  0.51765526    -0.05660
C2306       C  0.30044358  0.90120535  0.51233858     0.00270
C2307       C  0.28438798  0.91007850  0.50686341    -0.08300
C2308       C  0.28424913  0.92919644  0.50601433    -0.05680
C2309       C  0.29953607  0.93965536  0.51007767     0.00260
C2310       C  0.31535935  0.93068412  0.51611174    -0.08210
C2311       C  0.33275687  0.94054221  0.52077845     0.62170
H2312       H  0.32695763  0.90509972  0.52275451     0.12860
H2313       H  0.27217350  0.93615666  0.50182258     0.12870
C2314       C  0.26744035  0.89979375  0.50196244     0.62400
F2315       F  0.34572223  0.92905046  0.52766474    -0.22770
F2316       F  0.32952959  0.95361493  0.53369592    -0.20100
F2317       F  0.33987912  0.94836905  0.50537402    -0.19770
F2318       F  0.26045675  0.89173912  0.51727706    -0.19820
F2319       F  0.27115704  0.88682559  0.48908548    -0.20150
F2320       F  0.25432905  0.91105355  0.49496909    -0.22820
C2321       C  0.08011507  0.68336600  0.51698563    -0.05660
C2322       C  0.09071094  0.69815923  0.51176591     0.00270
C2323       C  0.08203670  0.71432123  0.50619438    -0.08300
C2324       C  0.06306834  0.71456855  0.50534139    -0.05680
C2325       C  0.05258382  0.69923471  0.50940280     0.00260
C2326       C  0.06139165  0.68321413  0.51538165    -0.08210
C2327       C  0.05154411  0.66566449  0.51982960     0.62170
H2328       H  0.08680669  0.67141344  0.52198034     0.12860
H2329       H  0.05626078  0.72677469  0.50112589     0.12870
C2330       C  0.09242186  0.73121639  0.50106032     0.62400
F2331       F  0.06296558  0.65242328  0.52633935    -0.22770
F2332       F  0.04358351  0.65885282  0.50438363    -0.20100
F2333       F  0.03868965  0.66868437  0.53295023    -0.19770
F2334       F  0.10541845  0.72716388  0.48837204    -0.19820
F2335       F  0.10035042  0.73844788  0.51628990    -0.20150
F2336       F  0.08137677  0.74434864  0.49372475    -0.22820
C2337       C  0.20279377  0.58262887  0.50868193    -0.05660
C2338       C  0.18614732  0.58971021  0.50308702     0.00270
C2339       C  0.17255471  0.57751381  0.49724354    -0.08300
C2340       C  0.17565782  0.55891791  0.49882903    -0.05680
C2341       C  0.19203683  0.55174331  0.50491978     0.00260
C2342       C  0.20616116  0.56385539  0.50941141    -0.08210
C2343       C  0.22459825  0.55724807  0.51513748     0.62170
H2344       H  0.21318511  0.59198840  0.51277798     0.12860
H2345       H  0.16497906  0.54972397  0.49507413     0.12870
C2346       C  0.15468336  0.58334504  0.48914285     0.62400
F2347       F  0.23595413  0.57137361  0.51961336    -0.22770
F2348       F  0.23245931  0.54785333  0.50108756    -0.20100
F2349       F  0.22307545  0.54613242  0.53008999    -0.19770
F2350       F  0.15668273  0.59853464  0.47844424    -0.19820
F2351       F  0.14249101  0.58659919  0.50282244    -0.20150
F2352       F  0.14753813  0.56996646  0.47822489    -0.22820
C2353       C  0.25281867  0.72588010  0.51233538    -0.05660
C2354       C  0.23568611  0.73176828  0.50703755     0.00270
C2355       C  0.23354362  0.74970885  0.50056786    -0.08300
C2356       C  0.24855741  0.76120538  0.50043659    -0.05680
C2357       C  0.26559681  0.75550872  0.50620872     0.00260
C2358       C  0.26790132  0.73736486  0.51203801    -0.08210
C2359       C  0.28591539  0.72993268  0.51814500     0.62170
H2360       H  0.25428755  0.71205939  0.51689786     0.12860
H2361       H  0.24699853  0.77502888  0.49590531     0.12870
C2362       C  0.21574988  0.75705751  0.49369270     0.62400
F2363       F  0.28418245  0.71320878  0.52636938    -0.22770
F2364       F  0.29384397  0.74146318  0.53047282    -0.20100
F2365       F  0.29699646  0.72778841  0.50335361    -0.19770
F2366       F  0.20486581  0.76139276  0.50814395    -0.19820
F2367       F  0.20726121  0.74452922  0.48279180    -0.20150
F2368       F  0.21811907  0.77259333  0.48352271    -0.22820
C2369       C  0.01419232  0.69462160  0.44212610    -0.05660
C2370       C  0.99848808  0.70085409  0.45043267     0.00270
C2371       C  0.98303156  0.70439692  0.43990882    -0.08300
C2372       C  0.98360205  0.70077186  0.42125817    -0.05680
C2373       C  0.99904787  0.69365120  0.41311881     0.00260
C2374       C  0.01482097  0.69115189  0.42347959    -0.08210
C2375       C  0.03226206  0.68510856  0.41481095     0.62170
H2376       H  0.02586582  0.69209275  0.45048347     0.12860
H2377       H  0.97179245  0.70286263  0.41298023     0.12870
C2378       C  0.96587259  0.71123597  0.44853801     0.62400
F2379       F  0.04640822  0.68543920  0.42693657    -0.22770
F2380       F  0.03648831  0.69651654  0.40061463    -0.20100
F2381       F  0.03052074  0.66767581  0.40841899    -0.19770
F2382       F  0.96908129  0.72763186  0.45685853    -0.19820
F2383       F  0.95992161  0.69892696  0.46126277    -0.20150
F2384       F  0.95234139  0.71368058  0.43595408    -0.22820
C2385       C  0.01213400  0.58024210  0.30324850    -0.05660
C2386       C  0.99589099  0.58853481  0.30798676     0.00270
C2387       C  0.97988531  0.57824658  0.30859956    -0.08300
C2388       C  0.98085861  0.55953476  0.30554870    -0.05680
C2389       C  0.99722427  0.55110972  0.30163136     0.00260
C2390       C  0.01306716  0.56153240  0.30000379    -0.08210
C2391       C  0.03086342  0.55274473  0.29536725     0.62170
H2392       H  0.02416001  0.58846508  0.30263235     0.12860
H2393       H  0.96890619  0.55123982  0.30659946     0.12870
C2394       C  0.96192609  0.58707584  0.31244688     0.62400
F2395       F  0.04464715  0.56526796  0.29431904    -0.22770
F2396       F  0.02952928  0.54416703  0.27884507    -0.20100
F2397       F  0.03527199  0.54017806  0.30846729    -0.19770
F2398       F  0.95885117  0.60066487  0.29998645    -0.19820
F2399       F  0.96198118  0.59437069  0.32961297    -0.20150
F2400       F  0.94788672  0.57484830  0.31135444    -0.22820
C2401       C  0.01380425  0.79540051  0.09075996    -0.05660
C2402       C  0.99738969  0.79923961  0.09916921     0.00270
C2403       C  0.98142932  0.79990969  0.08885370    -0.08300
C2404       C  0.98262355  0.79809585  0.07001029    -0.05680
C2405       C  0.99915792  0.79518660  0.06150503     0.00260
C2406       C  0.01492999  0.79316393  0.07193044    -0.08210
C2407       C  0.03280496  0.78900054  0.06308147     0.62170
H2408       H  0.02578530  0.79464286  0.09901899     0.12860
H2409       H  0.97069126  0.79922744  0.06171468     0.12870
C2410       C  0.96328608  0.80238819  0.09780843     0.62400
F2411       F  0.04651506  0.78756442  0.07562382    -0.22770
F2412       F  0.03721352  0.80259454  0.05107990    -0.20100
F2413       F  0.03162171  0.77282326  0.05384670    -0.19770
F2414       F  0.96252618  0.81907553  0.10610439    -0.19820
F2415       F  0.96074521  0.78900684  0.11062201    -0.20150
F2416       F  0.94935270  0.80134443  0.08547513    -0.22820
C2417       C  0.01410613  0.91151433  0.20068505    -0.05660
C2418       C  0.99819889  0.90231582  0.20496939     0.00270
C2419       C  0.98347236  0.91188455  0.21231989    -0.08300
C2420       C  0.98495141  0.93072461  0.21442825    -0.05680
C2421       C  0.00056460  0.93999252  0.20929819     0.00260
C2422       C  0.01561741  0.93030096  0.20290542    -0.08210
C2423       C  0.03320491  0.93980628  0.19866926     0.62170
H2424       H  0.02523919  0.90386570  0.19522915     0.12860
H2425       H  0.97367307  0.93848215  0.21941001     0.12870
C2426       C  0.96606842  0.90234193  0.21712390     0.62400
F2427       F  0.04663749  0.92767916  0.19427788    -0.22770
F2428       F  0.03878299  0.94953880  0.21358944    -0.20100
F2429       F  0.03096425  0.95145435  0.18424379    -0.19770
F2430       F  0.96917035  0.88983268  0.23063607    -0.19820
F2431       F  0.95933201  0.89359533  0.20208241    -0.20150
F2432       F  0.95314484  0.91429285  0.22321565    -0.22820
C2433       C  0.98220272  0.75734670  0.25286541    -0.05660
C2434       C  0.99778204  0.75820581  0.24227831     0.00270
C2435       C  0.01205837  0.74602601  0.24553058    -0.08300
C2436       C  0.01007339  0.73306658  0.25928383    -0.05680
C2437       C  0.99449954  0.73221711  0.26988070     0.00260
C2438       C  0.98022217  0.74439447  0.26662545    -0.08210
C2439       C  0.96279873  0.74334886  0.27721829     0.62170
H2440       H  0.97151573  0.76688169  0.25014500     0.12860
H2441       H  0.02076740  0.72354301  0.26201582     0.12870
C2442       C  0.02949481  0.74709402  0.23496084     0.62400
F2443       F  0.95001081  0.75515764  0.27054023    -0.22770
F2444       F  0.96589259  0.74771992  0.29507496    -0.20100
F2445       F  0.95584287  0.72604245  0.27624024    -0.19770
F2446       F  0.03645895  0.76439381  0.23599781    -0.19820
F2447       F  0.02641815  0.74277728  0.21708802    -0.20150
F2448       F  0.04226975  0.73525920  0.24161771    -0.22820
C2449       C  0.31752351  0.57927008  0.99628041    -0.05660
C2450       C  0.30292408  0.59013739  0.00122899     0.00270
C2451       C  0.28661519  0.58158739  0.00651914    -0.08300
C2452       C  0.28600262  0.56250023  0.00725871    -0.05680
C2453       C  0.30103633  0.55172395  0.00324150     0.00260
C2454       C  0.31719307  0.56038350  0.99753468    -0.08210
C2455       C  0.33433562  0.55015282  0.99285165     0.62170
H2456       H  0.32963397  0.58584356  0.99161503     0.12860
H2457       H  0.27369857  0.55580891  0.01126301     0.12870
C2458       C  0.26988379  0.59217596  0.01145332     0.62400
F2459       F  0.34772900  0.56143848  0.98640520    -0.22770
F2460       F  0.33086674  0.53750128  0.97956994    -0.20100
F2461       F  0.34101877  0.54174803  0.00813999    -0.19770
F2462       F  0.26276522  0.59998573  0.99608844    -0.19820
F2463       F  0.27395889  0.60536632  0.02400533    -0.20150
F2464       F  0.25673297  0.58121041  0.01888511    -0.22820
C2465       C  0.08278593  0.81442764  0.00839759    -0.05660
C2466       C  0.09281367  0.79916769  0.00357330     0.00270
C2467       C  0.08355151  0.78258789  0.00049492    -0.08300
C2468       C  0.06461614  0.78235879  0.00172899    -0.05680
C2469       C  0.05458794  0.79796038  0.00557425     0.00260
C2470       C  0.06397468  0.81443588  0.00907809    -0.08210
C2471       C  0.05465504  0.83233069  0.01318554     0.62170
H2472       H  0.08992806  0.82675939  0.01144602     0.12860
H2473       H  0.05742322  0.76986128  0.99942562     0.12870
C2474       C  0.09314564  0.76508559  0.99594586     0.62400
F2475       F  0.06670748  0.84598449  0.01727630    -0.22770
F2476       F  0.04338083  0.83044597  0.02789252    -0.20100
F2477       F  0.04497677  0.83795660  0.99825709    -0.19770
F2478       F  0.10171105  0.75858726  0.01117433    -0.19820
F2479       F  0.10542683  0.76785155  0.98221529    -0.20150
F2480       F  0.08131851  0.75183503  0.99020825    -0.22820
C2481       C  0.21341047  0.92897298  0.00362503    -0.05660
C2482       C  0.19802038  0.93931863  0.00745787     0.00270
C2483       C  0.18176729  0.93012627  0.01201208    -0.08300
C2484       C  0.18154913  0.91118138  0.01183117    -0.05680
C2485       C  0.19660613  0.90087881  0.00719026     0.00260
C2486       C  0.21305039  0.90987304  0.00338766    -0.08210
C2487       C  0.23011287  0.89963733  0.99884533     0.62170
H2488       H  0.22578919  0.93600253  0.00053705     0.12860
H2489       H  0.16924561  0.90410330  0.01508816     0.12870
C2490       C  0.16444023  0.93986106  0.01700202     0.62400
F2491       F  0.24353001  0.91104307  0.99266887    -0.22770
F2492       F  0.22679709  0.88702184  0.98550035    -0.20100
F2493       F  0.23647350  0.89107652  0.01414273    -0.19770
F2494       F  0.15774052  0.94886705  0.00206987    -0.19820
F2495       F  0.16761362  0.95193312  0.03088796    -0.20150
F2496       F  0.15121067  0.92806068  0.02283885    -0.22820
C2497       C  0.25207459  0.76351290  0.00206575    -0.05660
C2498       C  0.23529200  0.75735251  0.00825692     0.00270
C2499       C  0.23328149  0.73885682  0.01314807    -0.08300
C2500       C  0.24826739  0.72747144  0.01177429    -0.05680
C2501       C  0.26503137  0.73374121  0.00586791     0.00260
C2502       C  0.26704171  0.75208116  0.00074466    -0.08210
C2503       C  0.28465182  0.75976078  0.99371158     0.62170
H2504       H  0.25345347  0.77755219  0.99821514     0.12860
H2505       H  0.24698978  0.71334586  0.01537664     0.12870
C2506       C  0.21571458  0.73070045  0.01975886     0.62400
F2507       F  0.28228241  0.77645333  0.98559836    -0.22770
F2508       F  0.29205584  0.74834592  0.98097110    -0.20100
F2509       F  0.29650622  0.76202767  0.00786936    -0.19770
F2510       F  0.20428228  0.72818569  0.00528197    -0.19820
F2511       F  0.20777379  0.74172864  0.03250126    -0.20150
F2512       F  0.21829587  0.71398947  0.02777251    -0.22820
C2513       C  0.43466079  0.71066481  0.00470996    -0.05660
C2514       C  0.44536103  0.69538224  0.00803826     0.00270
C2515       C  0.43677796  0.67888174  0.01311163    -0.08300
C2516       C  0.41805662  0.67860137  0.01475936    -0.05680
C2517       C  0.40722196  0.69349480  0.01053804     0.00260
C2518       C  0.41570194  0.71005699  0.00562766    -0.08210
C2519       C  0.40522354  0.72710644  0.00134568     0.62170
H2520       H  0.44131661  0.72317337  0.00112804     0.12860
H2521       H  0.41159880  0.66630250  0.01921217     0.12870
C2522       C  0.44687867  0.66129860  0.01669716     0.62400
F2523       F  0.41608084  0.74045447  0.99405967    -0.22770
F2524       F  0.39785938  0.73389601  0.01704863    -0.20100
F2525       F  0.39184336  0.72348531  0.98891701    -0.19770
F2526       F  0.45960058  0.66387448  0.03005629    -0.19820
F2527       F  0.45502888  0.65544670  0.00096944    -0.20150
F2528       F  0.43564785  0.64751077  0.02242708    -0.22820
C2529       C  0.51676388  0.80265742  0.44272396    -0.05660
C2530       C  0.50287112  0.79256160  0.45056593     0.00270
C2531       C  0.48961972  0.78452619  0.43943970    -0.08300
C2532       C  0.49020531  0.78787349  0.42070769    -0.05680
C2533       C  0.50354479  0.79888820  0.41303927     0.00260
C2534       C  0.51753240  0.80574514  0.42403975    -0.08210
C2535       C  0.53339900  0.81598202  0.41615513     0.62170
H2536       H  0.52688803  0.80846565  0.45148630     0.12860
H2537       H  0.47989275  0.78241925  0.41195276     0.12870
C2538       C  0.47457780  0.77315692  0.44737265     0.62400
F2539       F  0.54702192  0.81813718  0.42869602    -0.22770
F2540       F  0.52807106  0.83294518  0.41055928    -0.20100
F2541       F  0.54036051  0.80660166  0.40161888    -0.19770
F2542       F  0.46519611  0.78309226  0.46004073    -0.19820
F2543       F  0.48168726  0.75795961  0.45554062    -0.20150
F2544       F  0.46256168  0.76750704  0.43427438    -0.22820
C2545       C  0.51059463  0.91063977  0.29932320    -0.05660
C2546       C  0.49601087  0.90275452  0.30839498     0.00270
C2547       C  0.48114956  0.91352961  0.31343372    -0.08300
C2548       C  0.48212176  0.93226375  0.31066578    -0.05680
C2549       C  0.49711402  0.94028821  0.30253162     0.00260
C2550       C  0.51139020  0.92939541  0.29621569    -0.08210
C2551       C  0.52761470  0.93764600  0.28691476     0.62170
H2552       H  0.52162450  0.90204650  0.29523851     0.12860
H2553       H  0.47125381  0.94089232  0.31511906     0.12870
C2554       C  0.46419211  0.90528168  0.32131819     0.62400
F2555       F  0.54031670  0.92473721  0.28254711    -0.22770
F2556       F  0.53562605  0.95019694  0.29815301    -0.20100
F2557       F  0.52230701  0.94606955  0.27111966    -0.19770
F2558       F  0.46747671  0.89890796  0.33853486    -0.19820
F2559       F  0.45843727  0.89118064  0.31052354    -0.20150
F2560       F  0.45040626  0.91776401  0.32234000    -0.22820
C2561       C  0.51171817  0.70108964  0.09129006    -0.05660
C2562       C  0.49784019  0.69062809  0.09875288     0.00270
C2563       C  0.48405010  0.68387166  0.08743920    -0.08300
C2564       C  0.48553138  0.68645977  0.06871147    -0.05680
C2565       C  0.49982580  0.69618668  0.06114891     0.00260
C2566       C  0.51288411  0.70416016  0.07254510    -0.08210
C2567       C  0.52821343  0.71534891  0.06491429     0.62170
H2568       H  0.52186876  0.70649978  0.10026057     0.12860
H2569       H  0.47546352  0.68087548  0.05975009     0.12870
C2570       C  0.46751664  0.67456351  0.09507766     0.62400
F2571       F  0.54014681  0.72067393  0.07822209    -0.22770
F2572       F  0.52147359  0.73074552  0.05680095    -0.20100
F2573       F  0.53758844  0.70537520  0.05227271    -0.19770
F2574       F  0.46026314  0.68492741  0.10877927    -0.19820
F2575       F  0.47200277  0.65775886  0.10178848    -0.20150
F2576       F  0.45438694  0.67219629  0.08205039    -0.22820
C2577       C  0.48381630  0.58064490  0.20504129    -0.05660
C2578       C  0.50045517  0.58942853  0.20622573     0.00270
C2579       C  0.51607189  0.57953718  0.21068706    -0.08300
C2580       C  0.51464543  0.56072527  0.21293412    -0.05680
C2581       C  0.49816024  0.55184574  0.21079007     0.00260
C2582       C  0.48239048  0.56185474  0.20735014    -0.08210
C2583       C  0.46426738  0.55257007  0.20593311     0.62170
H2584       H  0.47204669  0.58856685  0.20172737     0.12860
H2585       H  0.52651465  0.55269135  0.21555287     0.12870
C2586       C  0.53418431  0.58878968  0.21233343     0.62400
F2587       F  0.45046706  0.56485112  0.20355869    -0.22770
F2588       F  0.46093719  0.54292321  0.22159695    -0.20100
F2589       F  0.46419971  0.54084793  0.19142059    -0.19770
F2590       F  0.53346759  0.60172806  0.22575370    -0.19820
F2591       F  0.53858147  0.59700308  0.19613569    -0.20150
F2592       F  0.54768820  0.57670223  0.21666370    -0.22820
C2593       C  0.48480768  0.73844988  0.24909091    -0.05660
C2594       C  0.50142895  0.73319297  0.24199545     0.00270
C2595       C  0.51746491  0.74099537  0.24859423    -0.08300
C2596       C  0.51631491  0.75415713  0.26219470    -0.05680
C2597       C  0.49969723  0.75940976  0.26929543     0.00260
C2598       C  0.48366342  0.75154258  0.26276292    -0.08210
C2599       C  0.46552167  0.75707599  0.27021841     0.62170
H2600       H  0.47274945  0.73216134  0.24384596     0.12860
H2601       H  0.52837651  0.76041840  0.26746429     0.12870
C2602       C  0.53562241  0.73526413  0.24133504     0.62400
F2603       F  0.45157377  0.74796105  0.26186401    -0.22770
F2604       F  0.46298470  0.77539210  0.26757218    -0.20100
F2605       F  0.46480280  0.75332591  0.28850182    -0.19770
F2606       F  0.53647318  0.73874317  0.22300497    -0.19820
F2607       F  0.53804544  0.71697450  0.24426516    -0.20150
F2608       F  0.54956497  0.74442047  0.24965266    -0.22820
C2609       C  0.28963998  0.50261899  0.91969389    -0.05660
C2610       C  0.30650981  0.49781976  0.91262920     0.00270
C2611       C  0.31949837  0.49015949  0.92437728    -0.08300
C2612       C  0.31573636  0.48936592  0.94291749    -0.05680
C2613       C  0.29929133  0.49512387  0.95025747     0.00260
C2614       C  0.28561630  0.50116195  0.93828595    -0.08210
C2615       C  0.26697642  0.50623868  0.94484874     0.62170
H2616       H  0.27964004  0.50787233  0.91047577     0.12860
H2617       H  0.32598784  0.48424587  0.95193240     0.12870
C2618       C  0.33730502  0.48252259  0.91787984     0.62400
F2619       F  0.25593853  0.51171032  0.93082452    -0.22770
F2620       F  0.26810659  0.52030595  0.95705909    -0.20100
F2621       F  0.25897839  0.49143874  0.95297798    -0.19770
F2622       F  0.34959339  0.49636099  0.91578346    -0.19820
F2623       F  0.33517765  0.47336865  0.90175699    -0.20150
F2624       F  0.34434199  0.47035579  0.93021069    -0.22820
C2625       C  0.43262418  0.50114576  0.79110239    -0.05660
C2626       C  0.44247969  0.49474258  0.80602744     0.00270
C2627       C  0.43292213  0.48839195  0.82151229    -0.08300
C2628       C  0.41410159  0.48941612  0.82155161    -0.05680
C2629       C  0.40436748  0.49656820  0.80703933     0.00260
C2630       C  0.41369166  0.50227909  0.79133664    -0.08210
C2631       C  0.40389568  0.51006543  0.77512769     0.62170
H2632       H  0.43992207  0.50571176  0.77930443     0.12860
H2633       H  0.40668663  0.48498110  0.83333077     0.12870
C2634       C  0.44213416  0.48074655  0.83824757     0.62400
F2635       F  0.41567263  0.51702297  0.76242437    -0.22770
F2636       F  0.39263733  0.52387824  0.78052762    -0.20100
F2637       F  0.39394018  0.49667672  0.76686074    -0.19770
F2638       F  0.45127928  0.49434836  0.84715496    -0.19820
F2639       F  0.45391933  0.46716919  0.83344766    -0.20150
F2640       F  0.42998518  0.47337819  0.85035736    -0.22820
C2641       C  0.08392914  0.49350921  0.72181914    -0.05660
C2642       C  0.09101805  0.49634658  0.70444922     0.00270
C2643       C  0.07930968  0.50175895  0.69035303    -0.08300
C2644       C  0.06080718  0.50197733  0.69365562    -0.05680
C2645       C  0.05337589  0.49802302  0.71069248     0.00260
C2646       C  0.06527639  0.49451133  0.72534254    -0.08210
C2647       C  0.05859821  0.49165179  0.74450612     0.62170
H2648       H  0.09315515  0.49001279  0.73256738     0.12860
H2649       H  0.05196168  0.50526598  0.68252722     0.12870
C2650       C  0.08574961  0.50749412  0.67169863     0.62400
F2651       F  0.07257314  0.48882653  0.75651416    -0.22770
F2652       F  0.04745883  0.47670689  0.74520387    -0.20100
F2653       F  0.04933940  0.50679849  0.75018484    -0.19770
F2654       F  0.08722325  0.49249686  0.66071671    -0.19820
F2655       F  0.10207222  0.51637233  0.67262449    -0.20150
F2656       F  0.07370564  0.51929659  0.66371654    -0.22820
C2657       C  0.20175288  0.48399718  0.59202672    -0.05660
C2658       C  0.18742411  0.49313977  0.60021752     0.00270
C2659       C  0.17638518  0.50459808  0.58966056    -0.08300
C2660       C  0.17922232  0.50530024  0.57092652    -0.05680
C2661       C  0.19295407  0.49542918  0.56249938     0.00260
C2662       C  0.20482670  0.48496460  0.57326624    -0.08210
C2663       C  0.22031571  0.47445684  0.56509685     0.62170
H2664       H  0.21035087  0.47577164  0.60048601     0.12860
H2665       H  0.17050425  0.51353798  0.56260115     0.12870
C2666       C  0.16200466  0.51647905  0.59803790     0.62400
F2667       F  0.22927803  0.46422934  0.57790454    -0.22770
F2668       F  0.23256958  0.48632490  0.55756517    -0.20100
F2669       F  0.21397604  0.46284462  0.55193490    -0.19770
F2670       F  0.16901447  0.52578231  0.61261552    -0.19820
F2671       F  0.14770021  0.50602573  0.60368304    -0.20150
F2672       F  0.15552802  0.52909537  0.58585300    -0.22820
C2673       C  0.23029354  0.48951507  0.75795111    -0.05660
C2674       C  0.23531011  0.49794538  0.74170860     0.00270
C2675       C  0.25314366  0.50453564  0.73980490    -0.08300
C2676       C  0.26516277  0.50231249  0.75429193    -0.05680
C2677       C  0.26015064  0.49387338  0.77054136     0.00260
C2678       C  0.24233385  0.48721185  0.77240514    -0.08210
C2679       C  0.23569042  0.47757406  0.78927901     0.62170
H2680       H  0.21666875  0.48458176  0.75926139     0.12860
H2681       H  0.27877337  0.50728002  0.75298257     0.12870
C2682       C  0.25981734  0.51397600  0.72282950     0.62400
F2683       F  0.21994853  0.46813813  0.78605730    -0.22770
F2684       F  0.23216302  0.49009710  0.80261496    -0.20100
F2685       F  0.24828487  0.46525575  0.79531048    -0.19770
F2686       F  0.24731840  0.52637186  0.71675716    -0.19820
F2687       F  0.26314438  0.50131701  0.70957008    -0.20150
F2688       F  0.27567743  0.52326161  0.72589996    -0.22820
C2689       C  0.31731782  0.00233475  0.59059558    -0.05660
C2690       C  0.30242677  0.99756120  0.60111741     0.00270
C2691       C  0.28588257  0.99366468  0.59234760    -0.08300
C2692       C  0.28529883  0.99388420  0.57325107    -0.05680
C2693       C  0.30055396  0.99778635  0.56270519     0.00260
C2694       C  0.31688484  0.00248022  0.57166917    -0.08210
C2695       C  0.33409657  0.00756844  0.56171320     0.62170
H2696       H  0.32968099  0.00572165  0.59748136     0.12860
H2697       H  0.27286306  0.99071447  0.56637946     0.12870
C2698       C  0.26893253  0.98908206  0.60279671     0.62400
F2699       F  0.34736546  0.01365758  0.57330979    -0.22770
F2700       F  0.33071270  0.02131311  0.54949944    -0.20100
F2701       F  0.34086799  0.99261991  0.55284361    -0.19770
F2702       F  0.26260127  0.00439717  0.61129250    -0.19820
F2703       F  0.27240018  0.97579929  0.61547186    -0.20150
F2704       F  0.25542964  0.98279262  0.59158593    -0.22820
C2705       C  0.08472937  0.00694443  0.79536696    -0.05660
C2706       C  0.09218940  0.99768682  0.81017133     0.00270
C2707       C  0.08135547  0.98546529  0.82011757    -0.08300
C2708       C  0.06297357  0.98460006  0.81618406    -0.05680
C2709       C  0.05516339  0.99499788  0.80239743     0.00260
C2710       C  0.06629979  0.00570662  0.79115606    -0.08210
C2711       C  0.05878192  0.01615736  0.77522918     0.62170
H2712       H  0.09340131  0.01562461  0.78743556     0.12860
H2713       H  0.05435861  0.97606194  0.82435287     0.12870
C2714       C  0.08883193  0.97320801  0.83478268     0.62400
F2715       F  0.07193669  0.02603545  0.76641805    -0.22770
F2716       F  0.04570610  0.02803611  0.78106597    -0.20100
F2717       F  0.05140830  0.00424110  0.76291445    -0.19770
F2718       F  0.09107686  0.98286017  0.85056229    -0.19820
F2719       F  0.10509050  0.96593374  0.82947933    -0.20150
F2720       F  0.07731769  0.95894349  0.83838909    -0.22820
C2721       C  0.18229152  0.98861275  0.92147938    -0.05660
C2722       C  0.19693963  0.99460622  0.91124383     0.00270
C2723       C  0.21319077  0.99915766  0.92018694    -0.08300
C2724       C  0.21369230  0.99843860  0.93926457    -0.05680
C2725       C  0.19859261  0.99340709  0.94956858     0.00260
C2726       C  0.18265194  0.98791745  0.94038776    -0.08210
C2727       C  0.16579015  0.98143799  0.95012195     0.62170
H2728       H  0.17014970  0.98481355  0.91439721     0.12860
H2729       H  0.22586133  0.00221342  0.94631347     0.12870
C2730       C  0.22980984  0.00509052  0.90988034     0.62400
F2731       F  0.15319163  0.97437867  0.93832077    -0.22770
F2732       F  0.15777830  0.99575341  0.95898429    -0.20100
F2733       F  0.17010141  0.96795333  0.96232700    -0.19770
F2734       F  0.22557940  0.01886070  0.89798338    -0.19820
F2735       F  0.23672843  0.99060393  0.90045231    -0.20150
F2736       F  0.24312945  0.01136242  0.92131849    -0.22820
C2737       C  0.25000662  0.00103995  0.77384469    -0.05660
C2738       C  0.23335548  0.99470763  0.76760532     0.00270
C2739       C  0.23151048  0.98968971  0.74919851    -0.08300
C2740       C  0.24654327  0.99124762  0.73784835    -0.05680
C2741       C  0.26321481  0.99755798  0.74410126     0.00260
C2742       C  0.26501947  0.00265120  0.76250353    -0.08210
C2743       C  0.28241781  0.00980550  0.77054510     0.62170
H2744       H  0.25121684  0.00481015  0.78790835     0.12860
H2745       H  0.24533142  0.98746955  0.72378726     0.12870
C2746       C  0.21403130  0.98267882  0.74121986     0.62400
F2747       F  0.27955499  0.01825740  0.78695870    -0.22770
F2748       F  0.29025605  0.02235386  0.75915054    -0.20100
F2749       F  0.29407755  0.99562397  0.77357041    -0.19770
F2750       F  0.20235655  0.99691227  0.73852892    -0.19820
F2751       F  0.20627931  0.97000499  0.75253683    -0.20150
F2752       F  0.21672386  0.97446111  0.72465842    -0.22820
C2753       C  0.01277727  0.29685591  0.59025377    -0.05660
C2754       C  0.99589644  0.29790887  0.59854524     0.00270
C2755       C  0.98013123  0.29517523  0.58826153    -0.08300
C2756       C  0.98175290  0.29237607  0.56955515    -0.05680
C2757       C  0.99860172  0.29208620  0.56115343     0.00260
C2758       C  0.01439851  0.29388113  0.57157182    -0.08210
C2759       C  0.03277667  0.29273481  0.56284355     0.62170
H2760       H  0.02465117  0.29878349  0.59848048     0.12860
H2761       H  0.96986622  0.29089401  0.56124889     0.12870
C2762       C  0.96175614  0.29546989  0.59707581     0.62400
F2763       F  0.04645923  0.29433996  0.57539308    -0.22770
F2764       F  0.03473118  0.30639174  0.55023191    -0.20100
F2765       F  0.03454479  0.27622697  0.55434085    -0.19770
F2766       F  0.95872864  0.31221277  0.60472797    -0.19820
F2767       F  0.96094587  0.28237332  0.61039343    -0.20150
F2768       F  0.94817269  0.29209419  0.58476690    -0.22820
C2769       C  0.98639426  0.41060538  0.71447243    -0.05660
C2770       C  0.99916842  0.40310772  0.70273907     0.00270
C2771       C  0.01318457  0.41410919  0.69589030    -0.08300
C2772       C  0.01282038  0.43270966  0.69952973    -0.05680
C2773       C  0.99944187  0.44043474  0.71034483     0.00260
C2774       C  0.98635223  0.42919888  0.71856013    -0.08210
C2775       C  0.97213147  0.43683781  0.73107820     0.62170
H2776       H  0.97614757  0.40181858  0.72003542     0.12860
H2777       H  0.02291101  0.44149841  0.69366855     0.12870
C2778       C  0.02875283  0.40629032  0.68522179     0.62400
F2779       F  0.96011860  0.42370776  0.73673315    -0.22770
F2780       F  0.96252818  0.45020649  0.72232834    -0.20100
F2781       F  0.98025446  0.44404251  0.74623488    -0.19770
F2782       F  0.02309067  0.40134720  0.66818128    -0.19820
F2783       F  0.03558027  0.39133439  0.69408305    -0.20150
F2784       F  0.04257835  0.41866474  0.68326643    -0.22820
C2785       C  0.01636381  0.06052139  0.80660642    -0.05660
C2786       C  0.99998038  0.05156599  0.80408897     0.00270
C2787       C  0.98383393  0.06153693  0.80298660    -0.08300
C2788       C  0.98453763  0.08037729  0.80536185    -0.05680
C2789       C  0.00084913  0.08924108  0.80866493     0.00260
C2790       C  0.01709301  0.07937261  0.80874021    -0.08210
C2791       C  0.03504122  0.08880850  0.81100471     0.62170
H2792       H  0.02854745  0.05256657  0.80721183     0.12860
H2793       H  0.97231126  0.08828210  0.80518719     0.12870
C2794       C  0.96598113  0.05216250  0.79983572     0.62400
F2795       F  0.04927194  0.07689941  0.80947768    -0.22770
F2796       F  0.03593668  0.09683941  0.82781468    -0.20100
F2797       F  0.03695043  0.10192155  0.79781122    -0.19770
F2798       F  0.96273312  0.03997563  0.81361474    -0.19820
F2799       F  0.96642322  0.04303286  0.78356765    -0.20150
F2800       F  0.95186578  0.06429522  0.79928979    -0.22820
C2801       C  0.98567768  0.18697253  0.92200855    -0.05660
C2802       C  0.00020678  0.19418511  0.91239133     0.00270
C2803       C  0.01375477  0.20391164  0.92165450    -0.08300
C2804       C  0.01254114  0.20551660  0.94057407    -0.05680
C2805       C  0.99846763  0.19744221  0.95026435     0.00260
C2806       C  0.98449773  0.18851277  0.94085313    -0.08210
C2807       C  0.96852435  0.18043205  0.95065432     0.62170
H2808       H  0.97545403  0.17963315  0.91462117     0.12860
H2809       H  0.02294273  0.21250162  0.94804504     0.12870
C2810       C  0.02977992  0.21179708  0.91173228     0.62400
F2811       F  0.95521928  0.17494076  0.93880461    -0.22770
F2812       F  0.96114378  0.19306305  0.96221935    -0.20100
F2813       F  0.97407320  0.16553363  0.96037942    -0.19770
F2814       F  0.02409545  0.22502720  0.89986954    -0.19820
F2815       F  0.03847770  0.19834024  0.90221632    -0.20150
F2816       F  0.04203438  0.21953415  0.92347004    -0.22820
C2817       C  0.01131014  0.23656442  0.76001676    -0.05660
C2818       C  0.99510456  0.23274103  0.76883670     0.00270
C2819       C  0.97934071  0.24230485  0.76421476    -0.08300
C2820       C  0.98036250  0.25568903  0.75076956    -0.05680
C2821       C  0.99656118  0.25949262  0.74192013     0.00260
C2822       C  0.01234085  0.24995508  0.74657915    -0.08210
C2823       C  0.03018608  0.25423451  0.73764926     0.62170
H2824       H  0.02317654  0.22903701  0.76386076     0.12860
H2825       H  0.96849643  0.26322872  0.74694935     0.12870
C2826       C  0.96154333  0.23809969  0.77326440     0.62400
F2827       F  0.04405784  0.24411265  0.74488199    -0.22770
F2828       F  0.03426308  0.27230776  0.74004192    -0.20100
F2829       F  0.02920097  0.25055398  0.71938620    -0.19770
F2830       F  0.96273047  0.24162095  0.79155016    -0.19820
F2831       F  0.95731034  0.22007735  0.77076812    -0.20150
F2832       F  0.94769212  0.24839170  0.76623680    -0.22820
C2833       C  0.41610510  0.00190004  0.69038372    -0.05660
C2834       C  0.40600816  0.99443048  0.70454022     0.00270
C2835       C  0.41504640  0.98931013  0.72073175    -0.08300
C2836       C  0.43396568  0.99059310  0.72135895    -0.05680
C2837       C  0.44406542  0.99691978  0.70664098     0.00260
C2838       C  0.43486964  0.00333657  0.69102820    -0.08210
C2839       C  0.44448932  0.01168185  0.67486571     0.62170
H2840       H  0.40910291  0.00643978  0.67841449     0.12860
H2841       H  0.44110658  0.98630892  0.73335266     0.12870
C2842       C  0.40519762  0.98251724  0.73737030     0.62400
F2843       F  0.43266044  0.01991959  0.66301700    -0.22770
F2844       F  0.45348615  0.99841652  0.66535910    -0.20100
F2845       F  0.45648802  0.02474916  0.68061710    -0.19770
F2846       F  0.39335324  0.96887533  0.73280280    -0.19820
F2847       F  0.39606336  0.99667694  0.74527900    -0.20150
F2848       F  0.41687535  0.97564913  0.75020159    -0.22820
C2849       C  0.51620887  0.29869195  0.92330369    -0.05660
C2850       C  0.49997806  0.29784174  0.91382050     0.00270
C2851       C  0.48386794  0.29348558  0.92294720    -0.08300
C2852       C  0.48440662  0.29093695  0.94176085    -0.05680
C2853       C  0.50051597  0.29269772  0.95136269     0.00260
C2854       C  0.51676058  0.29611124  0.94207729    -0.08210
C2855       C  0.53447668  0.29727695  0.95208616     0.62170
H2856       H  0.52836776  0.30189799  0.91592938     0.12860
H2857       H  0.47218837  0.28813959  0.94920093     0.12870
C2858       C  0.46624577  0.29191202  0.91281327     0.62400
F2859       F  0.54883959  0.29954950  0.94043383    -0.22770
F2860       F  0.53723866  0.28157297  0.96184406    -0.20100
F2861       F  0.53410178  0.31180749  0.96373874    -0.19770
F2862       F  0.46767432  0.27872444  0.89969134    -0.19820
F2863       F  0.46218963  0.30823253  0.90468300    -0.20150
F2864       F  0.45219149  0.28729508  0.92415824    -0.22820
C2865       C  0.48479512  0.41004273  0.80080414    -0.05660
C2866       C  0.50008905  0.40210763  0.80850894     0.00270
C2867       C  0.51545681  0.41279262  0.81204833    -0.08300
C2868       C  0.51432732  0.43153931  0.80946785    -0.05680
C2869       C  0.49863808  0.43964067  0.80292895     0.00260
C2870       C  0.48385989  0.42880108  0.79777601    -0.08210
C2871       C  0.46710401  0.43710516  0.78962987     0.62170
H2872       H  0.47338171  0.40149592  0.79774455     0.12860
H2873       H  0.52563631  0.44010167  0.81281876     0.12870
C2874       C  0.53305510  0.40441091  0.81811487     0.62400
F2875       F  0.45409994  0.42422375  0.78603730    -0.22770
F2876       F  0.47142379  0.44564010  0.77358582    -0.20100
F2877       F  0.45990261  0.44959410  0.80141151    -0.19770
F2878       F  0.53775278  0.39063765  0.80643837    -0.19820
F2879       F  0.53135594  0.39752504  0.83537191    -0.20150
F2880       F  0.54690124  0.41691465  0.81820646    -0.22820
C2881       C  0.51217332  0.07968804  0.69436421    -0.05660
C2882       C  0.49916401  0.08938828  0.70393076     0.00270
C2883       C  0.48707026  0.08011293  0.71544288    -0.08300
C2884       C  0.48806948  0.06112373  0.71641578    -0.05680
C2885       C  0.50053971  0.05136827  0.70609959     0.00260
C2886       C  0.51319734  0.06079518  0.69534290    -0.08210
C2887       C  0.52780944  0.05103098  0.68500782     0.62170
H2888       H  0.52132696  0.08708843  0.68570546     0.12860
H2889       H  0.47873308  0.05367488  0.72482412     0.12870
C2890       C  0.47276108  0.09010967  0.72602804     0.62400
F2891       F  0.54034100  0.06288793  0.67787222    -0.22770
F2892       F  0.52022587  0.04154074  0.67088188    -0.20100
F2893       F  0.53676371  0.03928569  0.69642224    -0.19770
F2894       F  0.46233786  0.10031165  0.71440653    -0.19820
F2895       F  0.48078758  0.10134504  0.73853678    -0.20150
F2896       F  0.46153265  0.07837718  0.73525559    -0.22820
C2897       C  0.51158096  0.18410115  0.58977327    -0.05660
C2898       C  0.49773945  0.19283818  0.59914543     0.00270
C2899       C  0.48548720  0.20396568  0.58960875    -0.08300
C2900       C  0.48731039  0.20550750  0.57075527    -0.05680
C2901       C  0.50065631  0.19608208  0.56132324     0.00260
C2902       C  0.51335235  0.18557398  0.57095354    -0.08210
C2903       C  0.52882155  0.17610346  0.56152550     0.62170
H2904       H  0.52083570  0.17573349  0.59735068     0.12860
H2905       H  0.47789251  0.21361273  0.56310076     0.12870
C2906       C  0.47008383  0.21349000  0.59905237     0.62400
F2907       F  0.54114496  0.16926726  0.57374489    -0.22770
F2908       F  0.53775696  0.18814239  0.55040501    -0.20100
F2909       F  0.52240622  0.16187005  0.55133412    -0.19770
F2910       F  0.47673577  0.22682321  0.61023381    -0.19820
F2911       F  0.46028751  0.20121941  0.60915636    -0.20150
F2912       F  0.45848973  0.22158284  0.58687870    -0.22820
C2913       C  0.49250009  0.22907474  0.75846431    -0.05660
C2914       C  0.50054020  0.23377902  0.74195739     0.00270
C2915       C  0.50860893  0.25108435  0.74005687    -0.08300
C2916       C  0.50814200  0.26297294  0.75482488    -0.05680
C2917       C  0.50013632  0.25823961  0.77132357     0.00260
C2918       C  0.49204302  0.24096734  0.77322589    -0.08210
C2919       C  0.48269349  0.23490494  0.79045409     0.62170
H2920       H  0.48646150  0.21582236  0.75973640     0.12860
H2921       H  0.51409395  0.27626989  0.75356153     0.12870
C2922       C  0.51784771  0.25727312  0.72281490     0.62400
F2923       F  0.47227797  0.21965241  0.78767361    -0.22770
F2924       F  0.47148390  0.24834819  0.79679964    -0.20100
F2925       F  0.49535753  0.23067273  0.80340363    -0.19770
F2926       F  0.50508874  0.26175465  0.71004132    -0.19820
F2927       F  0.52892488  0.24384578  0.71621226    -0.20150
F2928       F  0.52838716  0.27242487  0.72568014    -0.22820
C2929       C  0.00916684  0.70183247  0.59108953    -0.05660
C2930       C  0.99422717  0.69316555  0.59876434     0.00270
C2931       C  0.97912864  0.68910245  0.58788452    -0.08300
C2932       C  0.98010060  0.69252671  0.56924136    -0.05680
C2933       C  0.99537717  0.70033881  0.56140628     0.00260
C2934       C  0.01000869  0.70554422  0.57244176    -0.08210
C2935       C  0.02662898  0.71431931  0.56443042     0.62170
H2936       H  0.02039751  0.70517451  0.59976333     0.12860
H2937       H  0.96900012  0.68884880  0.56052434     0.12870
C2938       C  0.96194470  0.68157952  0.59597480     0.62400
F2939       F  0.03954311  0.71775614  0.57743139    -0.22770
F2940       F  0.02204809  0.73055341  0.55642205    -0.20100
F2941       F  0.03408498  0.70306670  0.55159010    -0.19770
F2942       F  0.95640878  0.69245508  0.61008349    -0.19820
F2943       F  0.96479760  0.66426592  0.60231257    -0.20150
F2944       F  0.94819289  0.68091718  0.58340992    -0.22820
C2945       C  0.98130370  0.57918678  0.69953920    -0.05660
C2946       C  0.99624500  0.58918542  0.70527319     0.00270
C2947       C  0.01049069  0.58038828  0.71442909    -0.08300
C2948       C  0.00959786  0.56152056  0.71679371    -0.05680
C2949       C  0.99503222  0.55146775  0.71025106     0.00260
C2950       C  0.98033405  0.56039864  0.70208450    -0.08210
C2951       C  0.96359786  0.55012703  0.69640087     0.62170
H2952       H  0.97048172  0.58622938  0.69276192     0.12860
H2953       H  0.02058029  0.55435585  0.72316707     0.12870
C2954       C  0.02686677  0.59072493  0.72093848     0.62400
F2955       F  0.95012551  0.56164455  0.69065053    -0.22770
F2956       F  0.95709846  0.54027733  0.71089129    -0.20100
F2957       F  0.96757483  0.53850094  0.68238818    -0.19770
F2958       F  0.02188924  0.60288571  0.73414394    -0.19820
F2959       F  0.03459669  0.59996329  0.70666542    -0.20150
F2960       F  0.03972036  0.57935697  0.72822899    -0.22820
C2961       C  0.01110846  0.78715308  0.94103051    -0.05660
C2962       C  0.99764717  0.79640467  0.95050527     0.00270
C2963       C  0.98427908  0.80596345  0.94084545    -0.08300
C2964       C  0.98553180  0.80693507  0.92196452    -0.05680
C2965       C  0.99952100  0.79854435  0.91253483     0.00260
C2966       C  0.01238237  0.78816075  0.92206680    -0.08210
C2967       C  0.02778054  0.77890482  0.91238231     0.62170
H2968       H  0.02101551  0.77966607  0.94868915     0.12860
H2969       H  0.97580560  0.81473863  0.91438087     0.12870
C2970       C  0.96878850  0.81517047  0.95038907     0.62400
F2971       F  0.03954120  0.77075287  0.92435280    -0.22770
F2972       F  0.03734091  0.79141967  0.90234986    -0.20100
F2973       F  0.02113592  0.76569586  0.90103764    -0.19770
F2974       F  0.97512960  0.82999676  0.95972631    -0.19820
F2975       F  0.96068364  0.80324301  0.96227619    -0.20150
F2976       F  0.95582943  0.82107534  0.93835284    -0.22820
C2977       C  0.98398146  0.91190430  0.80595928    -0.05660
C2978       C  0.00037194  0.90304597  0.80877070     0.00270
C2979       C  0.01662462  0.91294521  0.80851871    -0.08300
C2980       C  0.01586506  0.93179392  0.80639547    -0.05680
C2981       C  0.99943397  0.94072542  0.80431426     0.00260
C2982       C  0.98323977  0.93076206  0.80369377    -0.08210
C2983       C  0.96532665  0.94016980  0.80114636     0.62170
H2984       H  0.97174285  0.90398249  0.80609183     0.12860
H2985       H  0.02806922  0.93977237  0.80669106     0.12870
C2986       C  0.03461299  0.90355679  0.81047827     0.62400
F2987       F  0.95116865  0.92803571  0.80096281    -0.22770
F2988       F  0.96530816  0.94944217  0.78491857    -0.20100
F2989       F  0.96253068  0.95224705  0.81508914    -0.19770
F2990       F  0.03631364  0.89050159  0.79725095    -0.19820
F2991       F  0.03578621  0.89546545  0.82726938    -0.20150
F2992       F  0.04881611  0.91551760  0.80873106    -0.22820
C2993       C  0.01155592  0.75587119  0.76027584    -0.05660
C2994       C  0.99518458  0.75975356  0.76872040     0.00270
C2995       C  0.97943184  0.75037077  0.76365607    -0.08300
C2996       C  0.98063069  0.73708788  0.75017150    -0.05680
C2997       C  0.99700336  0.73320478  0.74171870     0.00260
C2998       C  0.01276549  0.74257585  0.74680685    -0.08210
C2999       C  0.03076937  0.73821120  0.73829333     0.62170
H3000       H  0.02340834  0.76326612  0.76444655     0.12860
H3001       H  0.96878388  0.72965785  0.74604700     0.12870
C3002       C  0.96148103  0.75463018  0.77232416     0.62400
F3003       F  0.04455913  0.74824996  0.74581478    -0.22770
F3004       F  0.03021567  0.74191757  0.72000360    -0.20100
F3005       F  0.03464182  0.72011304  0.74081374    -0.19770
F3006       F  0.95745646  0.77268898  0.76977014    -0.19820
F3007       F  0.96225243  0.75101237  0.79062683    -0.20150
F3008       F  0.94769731  0.74445136  0.76498134    -0.22820
C3009       C  0.68142544  0.98760268  0.58931698    -0.05660
C3010       C  0.69646170  0.99127554  0.60017804     0.00270
C3011       C  0.71295934  0.99570281  0.59143117    -0.08300
C3012       C  0.71334053  0.99671317  0.57233621    -0.05680
C3013       C  0.69793495  0.99397384  0.56166260     0.00260
C3014       C  0.68150304  0.98950461  0.57047888    -0.08210
C3015       C  0.66380936  0.98678515  0.56047208     0.62170
H3016       H  0.66917252  0.98328553  0.59579330     0.12860
H3017       H  0.72581572  0.99988237  0.56553813     0.12870
C3018       C  0.73022185  0.99927721  0.60172732     0.62400
F3019       F  0.64988105  0.98197573  0.57190084    -0.22770
F3020       F  0.66560084  0.97313900  0.54789999    -0.20100
F3021       F  0.65883043  0.00270696  0.55204327    -0.19770
F3022       F  0.73625331  0.98335395  0.60935594    -0.19820
F3023       F  0.72739586  0.01212552  0.61494991    -0.20150
F3024       F  0.74373520  0.00568752  0.59057710    -0.22820
C3025       C  0.58267961  0.00105909  0.68834961    -0.05660
C3026       C  0.59329807  0.99856413  0.70376913     0.00270
C3027       C  0.58460712  0.99503649  0.72053099    -0.08300
C3028       C  0.56562024  0.99455386  0.72100035    -0.05680
C3029       C  0.55510480  0.99640456  0.70530186     0.00260
C3030       C  0.56401920  0.99899157  0.68840860    -0.08210
C3031       C  0.55449033  0.99917073  0.67013873     0.62170
H3032       H  0.58925775  0.00444419  0.67579691     0.12860
H3033       H  0.55882853  0.99246253  0.73375649     0.12870
C3034       C  0.59490645  0.99162948  0.73788917     0.62400
F3035       F  0.56629275  0.00112376  0.65581498    -0.22770
F3036       F  0.54258281  0.01339162  0.66924253    -0.20100
F3037       F  0.54551713  0.98300509  0.66757556    -0.19770
F3038       F  0.60210078  0.00767064  0.74408503    -0.19820
F3039       F  0.60842733  0.97917883  0.73500711    -0.20150
F3040       F  0.58390944  0.98479971  0.75135153    -0.22820
C3041       C  0.81639983  0.00134069  0.92460585    -0.05660
C3042       C  0.80188804  0.99639130  0.91358850     0.00270
C3043       C  0.78530920  0.99162365  0.92183592    -0.08300
C3044       C  0.78423049  0.99146354  0.94086823    -0.05680
C3045       C  0.79901017  0.99577870  0.95190067     0.00260
C3046       C  0.81541116  0.00112738  0.94354397    -0.08210
C3047       C  0.83198294  0.00669472  0.95423940     0.62170
H3048       H  0.82884755  0.00522201  0.91812840     0.12860
H3049       H  0.77172397  0.98772759  0.94732219     0.12870
C3050       C  0.76881322  0.98646844  0.91092264     0.62400
F3051       F  0.84547213  0.01337914  0.94322298    -0.22770
F3052       F  0.83886860  0.99189910  0.96331459    -0.20100
F3053       F  0.82759358  0.02013903  0.96641365    -0.19770
F3054       F  0.77317772  0.97370007  0.89804930    -0.19820
F3055       F  0.76187558  0.00166313  0.90264157    -0.20150
F3056       F  0.75542490  0.97920481  0.92169675    -0.22820
C3057       C  0.91696070  0.99762590  0.82660981    -0.05660
C3058       C  0.90628670  0.99422963  0.81132477     0.00270
C3059       C  0.91503921  0.99276884  0.79421886    -0.08300
C3060       C  0.93396066  0.99381121  0.79356716    -0.05680
C3061       C  0.94455293  0.99612071  0.80909516     0.00260
C3062       C  0.93578175  0.99811496  0.82608388    -0.08210
C3063       C  0.94580492  0.00045162  0.84391140     0.62170
H3064       H  0.91040660  0.99984605  0.83938785     0.12860
H3065       H  0.94072500  0.99267164  0.78069559     0.12870
C3066       C  0.90502264  0.99041021  0.77650356     0.62400
F3067       F  0.93430747  0.00261455  0.85843804    -0.22770
F3068       F  0.95663721  0.01562248  0.84318537    -0.20100
F3069       F  0.95606573  0.98527157  0.84739128    -0.19770
F3070       F  0.89569847  0.00606216  0.77257116    -0.19820
F3071       F  0.89346747  0.97581638  0.77755574    -0.20150
F3072       F  0.91651953  0.98725345  0.76215828    -0.22820
C3073       C  0.74681757  0.99218575  0.77482438    -0.05660
C3074       C  0.76405921  0.99760089  0.76927908     0.00270
C3075       C  0.76676985  0.00302134  0.75102805    -0.08300
C3076       C  0.75202304  0.00280291  0.73922750    -0.05680
C3077       C  0.73482528  0.99754752  0.74484640     0.00260
C3078       C  0.73208753  0.99200229  0.76297673    -0.08210
C3079       C  0.71395858  0.98567089  0.77001068     0.62170
H3080       H  0.74490527  0.98801835  0.78870742     0.12860
H3081       H  0.75385196  0.00675793  0.72526186     0.12870
C3082       C  0.78484502  0.00901215  0.74355361     0.62400
F3083       F  0.71548866  0.97703498  0.78653858    -0.22770
F3084       F  0.70620965  0.97359402  0.75809135    -0.20100
F3085       F  0.70279234  0.00035656  0.77234911    -0.19770
F3086       F  0.79556472  0.99406199  0.74074996    -0.19820
F3087       F  0.79317583  0.02090604  0.75524760    -0.20150
F3088       F  0.78307683  0.01777752  0.72711561    -0.22820
C3089       C  0.71009363  0.58304190  0.00086872    -0.05660
C3090       C  0.69287090  0.58983105  0.00467524     0.00270
C3091       C  0.67946054  0.57785669  0.01108633    -0.08300
C3092       C  0.68334737  0.55937269  0.01187123    -0.05680
C3093       C  0.70020622  0.55221981  0.00703340     0.00260
C3094       C  0.71414725  0.56442448  0.00211106    -0.08210
C3095       C  0.73313614  0.55811949  0.99818729     0.62170
H3096       H  0.72035727  0.59252030  0.99664328     0.12860
H3097       H  0.67280590  0.55027588  0.01618950     0.12870
C3098       C  0.66108140  0.58417245  0.01745009     0.62400
F3099       F  0.74451242  0.57240281  0.99424343    -0.22770
F3100       F  0.73312526  0.54659339  0.98351455    -0.20100
F3101       F  0.73999102  0.54929646  0.01315371    -0.19770
F3102       F  0.65019521  0.58748182  0.00271922    -0.19820
F3103       F  0.66262252  0.59962326  0.02781070    -0.20150
F3104       F  0.65267032  0.57123446  0.02801600    -0.22820
C3105       C  0.56634700  0.71221199  0.00117364    -0.05660
C3106       C  0.55630501  0.69691899  0.00624218     0.00270
C3107       C  0.56562240  0.68083083  0.01125507    -0.08300
C3108       C  0.58438992  0.68053706  0.00995470    -0.05680
C3109       C  0.59435714  0.69542670  0.00395332     0.00260
C3110       C  0.58527412  0.71184043  0.99999850    -0.08210
C3111       C  0.59520297  0.72887814  0.99439790     0.62170
H3112       H  0.55919630  0.72448930  0.99783148     0.12860
H3113       H  0.59155625  0.66830512  0.01341216     0.12870
C3114       C  0.55620543  0.66375887  0.01789786     0.62400
F3115       F  0.58358346  0.74210345  0.98822956    -0.22770
F3116       F  0.60720081  0.72514820  0.98066010    -0.20100
F3117       F  0.60428451  0.73584733  0.00908809    -0.19770
F3118       F  0.54689710  0.65579912  0.00382813    -0.19820
F3119       F  0.54455904  0.66791104  0.03183513    -0.20150
F3120       F  0.56820085  0.65105208  0.02442792    -0.22820
C3121       C  0.93297859  0.78267976  0.00940455    -0.05660
C3122       C  0.94336263  0.79840933  0.00715688     0.00270
C3123       C  0.93428765  0.81530977  0.00532544    -0.08300
C3124       C  0.91550398  0.81540740  0.00477501    -0.05680
C3125       C  0.90501774  0.79993904  0.00774240     0.00260
C3126       C  0.91399178  0.78308403  0.01017285    -0.08210
C3127       C  0.90408630  0.76545262  0.01350871     0.62170
H3128       H  0.93991355  0.76991253  0.01076267     0.12860
H3129       H  0.90879306  0.82801529  0.00205047     0.12870
C3130       C  0.94384913  0.83355229  0.00429343     0.62400
F3131       F  0.91557504  0.75187985  0.01916032    -0.22770
F3132       F  0.89612203  0.75973914  0.99766049    -0.20100
F3133       F  0.89128435  0.76764279  0.02684432    -0.19770
F3134       F  0.95481867  0.83418927  0.98928415    -0.19820
F3135       F  0.95383942  0.83628620  0.01981005    -0.20150
F3136       F  0.93201728  0.84790381  0.00292880    -0.22820
C3137       C  0.79757719  0.90935415  0.01913885    -0.05660
C3138       C  0.79839081  0.90150380  0.00197449     0.00270
C3139       C  0.79454740  0.91204642  0.98646546    -0.08300
C3140       C  0.79088303  0.93056935  0.98869270    -0.05680
C3141       C  0.79094506  0.93856336  0.00582653     0.00260
C3142       C  0.79378301  0.92778490  0.02132876    -0.08210
C3143       C  0.79284008  0.93587044  0.04004094     0.62170
H3144       H  0.80032358  0.90096582  0.03081732     0.12860
H3145       H  0.78879006  0.93914808  0.97701596     0.12870
C3146       C  0.79521450  0.90397351  0.96766160     0.62400
F3147       F  0.79475717  0.92292021  0.05340928    -0.22770
F3148       F  0.77632245  0.94409128  0.04225601    -0.20100
F3149       F  0.80637020  0.94849882  0.04212093    -0.19770
F3150       F  0.78216928  0.89079391  0.96598996    -0.19820
F3151       F  0.81190826  0.89639298  0.96465591    -0.20150
F3152       F  0.79221674  0.91684399  0.95441910    -0.22820
C3153       C  0.76441652  0.74353609  0.99535023    -0.05660
C3154       C  0.76204080  0.75972263  0.00483368     0.00270
C3155       C  0.74748113  0.76150622  0.01702088    -0.08300
C3156       C  0.73567328  0.74686360  0.01906380    -0.05680
C3157       C  0.73795976  0.73069937  0.00948485     0.00260
C3158       C  0.75252748  0.72894028  0.99727218    -0.08210
C3159       C  0.75548368  0.71212443  0.98591625     0.62170
H3160       H  0.77577796  0.74245233  0.98628603     0.12860
H3161       H  0.72431687  0.74798286  0.02812946     0.12870
C3162       C  0.74439759  0.77848910  0.02809498     0.62400
F3163       F  0.76828298  0.71492704  0.97263742    -0.22770
F3164       F  0.73970253  0.70713087  0.97742782    -0.20100
F3165       F  0.76145325  0.69818335  0.99676001    -0.19770
F3166       F  0.73841332  0.79223842  0.01701502    -0.19820
F3167       F  0.76013519  0.78370396  0.03653144    -0.20150
F3168       F  0.73156225  0.77583363  0.04136670    -0.22820
C3169       C  0.67806930  0.50059360  0.92353772    -0.05660
C3170       C  0.69341296  0.50040517  0.91243767     0.00270
C3171       C  0.71051530  0.49850895  0.92095889    -0.08300
C3172       C  0.71128457  0.49746126  0.94000633    -0.05680
C3173       C  0.69580755  0.49734900  0.95089797     0.00260
C3174       C  0.67873317  0.49817840  0.94230660    -0.08210
C3175       C  0.66099598  0.49624428  0.95243497     0.62170
H3176       H  0.66511867  0.50279115  0.91745171     0.12860
H3177       H  0.72422761  0.49674579  0.94659864     0.12870
C3178       C  0.72808188  0.49767414  0.91058713     0.62400
F3179       F  0.64638316  0.49552689  0.94089135    -0.22770
F3180       F  0.65849701  0.51084528  0.96378107    -0.20100
F3181       F  0.66096327  0.48033344  0.96228247    -0.19770
F3182       F  0.73200543  0.51453164  0.90356886    -0.19820
F3183       F  0.72696075  0.48497592  0.89696001    -0.20150
F3184       F  0.74233528  0.49273005  0.92153789    -0.22820
C3185       C  0.58147238  0.48451387  0.82126289    -0.05660
C3186       C  0.59182653  0.49147484  0.80704598     0.00270
C3187       C  0.58293231  0.49804854  0.79136761    -0.08300
C3188       C  0.56395054  0.49822007  0.79111418    -0.05680
C3189       C  0.55365069  0.49232575  0.80592948     0.00260
C3190       C  0.56266705  0.48502898  0.82127884    -0.08210
C3191       C  0.55288627  0.47792127  0.83793617     0.62170
H3192       H  0.58839168  0.47899413  0.83286515     0.12860
H3193       H  0.55696458  0.50335882  0.77936629     0.12870
C3194       C  0.59309715  0.50503704  0.77501803     0.62400
F3195       F  0.56440264  0.46956956  0.85001666    -0.22770
F3196       F  0.54012072  0.46530734  0.83295172    -0.20100
F3197       F  0.54479474  0.49207971  0.84697144    -0.19770
F3198       F  0.60149514  0.49079863  0.76646144    -0.19820
F3199       F  0.60568054  0.51776544  0.78019931    -0.20150
F3200       F  0.58178015  0.51312416  0.76257722    -0.22820
C3201       C  0.81807441  0.49057698  0.58909658    -0.05660
C3202       C  0.80309383  0.49498363  0.59961200     0.00270
C3203       C  0.78657602  0.49895884  0.59084461    -0.08300
C3204       C  0.78597662  0.49874789  0.57176696    -0.05680
C3205       C  0.80122172  0.49491947  0.56122764     0.00260
C3206       C  0.81765082  0.49056117  0.57016870    -0.08210
C3207       C  0.83494608  0.48591767  0.56018377     0.62170
H3208       H  0.83045707  0.48728566  0.59598767     0.12860
H3209       H  0.77351736  0.50183100  0.56490230     0.12870
C3210       C  0.76966892  0.50368013  0.60126853     0.62400
F3211       F  0.84842215  0.48029131  0.57177446    -0.22770
F3212       F  0.84128561  0.50100965  0.55115103    -0.20100
F3213       F  0.83186934  0.47201755  0.54810233    -0.19770
F3214       F  0.77335800  0.51663901  0.61418068    -0.19820
F3215       F  0.76291230  0.48834367  0.60947118    -0.20150
F3216       F  0.75640556  0.51048717  0.59007112    -0.22820
C3217       C  0.91437372  0.48739066  0.69263248    -0.05660
C3218       C  0.90439545  0.49711386  0.70538530     0.00270
C3219       C  0.91336363  0.50467338  0.72055074    -0.08300
C3220       C  0.93219351  0.50294093  0.72174740    -0.05680
C3221       C  0.94225038  0.49406865  0.70839811     0.00260
C3222       C  0.93309992  0.48560255  0.69382303    -0.08210
C3223       C  0.94279436  0.47473735  0.67938025     0.62170
H3224       H  0.90732004  0.48142557  0.68132610     0.12860
H3225       H  0.93931311  0.50900724  0.73295615     0.12870
C3226       C  0.90343901  0.51492728  0.73521941     0.62400
F3227       F  0.93095919  0.46479302  0.66893420    -0.22770
F3228       F  0.95461873  0.46271489  0.68730457    -0.20100
F3229       F  0.95206208  0.48625362  0.66798170    -0.19770
F3230       F  0.89342325  0.50299452  0.74545303    -0.19820
F3231       F  0.89228964  0.52779288  0.72763903    -0.20150
F3232       F  0.91513006  0.52374588  0.74677891    -0.22820
C3233       C  0.76520020  0.48606865  0.75874504    -0.05660
C3234       C  0.76062860  0.49196186  0.74129759     0.00270
C3235       C  0.74340842  0.49963040  0.73825090    -0.08300
C3236       C  0.73144834  0.50085059  0.75286923    -0.05680
C3237       C  0.73609888  0.49505863  0.77029728     0.00260
C3238       C  0.75331141  0.48750032  0.77338636    -0.08210
C3239       C  0.75929832  0.48074674  0.79182167     0.62170
H3240       H  0.77840415  0.48035651  0.76088651     0.12860
H3241       H  0.71816813  0.50641518  0.75077842     0.12870
C3242       C  0.73741568  0.50676944  0.71996374     0.62400
F3243       F  0.77492773  0.47069848  0.79075902    -0.22770
F3244       F  0.74621800  0.46984099  0.79940044    -0.20100
F3245       F  0.76267410  0.49527173  0.80299898    -0.19770
F3246       F  0.73361244  0.49247105  0.70863096    -0.19820
F3247       F  0.75061668  0.51755740  0.71242834    -0.20150
F3248       F  0.72200873  0.51712829  0.72131552    -0.22820
C3249       C  0.71312964  0.93010369  0.50535549    -0.05660
C3250       C  0.69755163  0.94084917  0.50487744     0.00270
C3251       C  0.68049742  0.93198692  0.50469738    -0.08300
C3252       C  0.67992166  0.91312767  0.50627467    -0.05680
C3253       C  0.69535149  0.90228761  0.50642309     0.00260
C3254       C  0.71243878  0.91098829  0.50572632    -0.08210
C3255       C  0.73001467  0.90062772  0.50538103     0.62170
H3256       H  0.72603907  0.93683144  0.50545650     0.12860
H3257       H  0.66699319  0.90663505  0.50746188     0.12870
C3258       C  0.66264539  0.94186809  0.50254387     0.62400
F3259       F  0.74431635  0.91160578  0.50058587    -0.22770
F3260       F  0.72919285  0.88677677  0.49290127    -0.20100
F3261       F  0.73356108  0.89377797  0.52237476    -0.19770
F3262       F  0.66287339  0.95212250  0.48690269    -0.19820
F3263       F  0.65954089  0.95275855  0.51734834    -0.20150
F3264       F  0.64821607  0.93013043  0.50116651    -0.22820
C3265       C  0.58394787  0.80826352  0.51690756    -0.05660
C3266       C  0.59367363  0.79644763  0.50584800     0.00270
C3267       C  0.58448730  0.78228036  0.49678740    -0.08300
C3268       C  0.56563291  0.78118915  0.49839849    -0.05680
C3269       C  0.55584612  0.79371615  0.50864012     0.00260
C3270       C  0.56521300  0.80708477  0.51866238    -0.08210
C3271       C  0.55565369  0.82012336  0.53125569     0.62170
H3272       H  0.59119085  0.81881722  0.52394992     0.12860
H3273       H  0.55828698  0.77087126  0.49112919     0.12870
C3274       C  0.59428126  0.76875297  0.48497203     0.62400
F3275       F  0.56759312  0.82896706  0.54253527    -0.22770
F3276       F  0.54358939  0.81083575  0.54204320    -0.20100
F3277       F  0.54664483  0.83306784  0.52130279    -0.19770
F3278       F  0.60472428  0.75760936  0.49562112    -0.19820
F3279       F  0.60505058  0.77767787  0.47262493    -0.20150
F3280       F  0.58248127  0.75791061  0.47541762    -0.22820
C3281       C  0.79616564  0.58024305  0.52126568    -0.05660
C3282       C  0.80046594  0.58912183  0.50509736     0.00270
C3283       C  0.80136617  0.57930736  0.48875579    -0.08300
C3284       C  0.79890378  0.56049287  0.48931871    -0.05680
C3285       C  0.79533725  0.55151911  0.50559623     0.00260
C3286       C  0.79343262  0.56144427  0.52176921    -0.08210
C3287       C  0.78910842  0.55205407  0.53947022     0.62170
H3288       H  0.79544111  0.58810998  0.53356548     0.12860
H3289       H  0.80030162  0.55253040  0.47713701     0.12870
C3290       C  0.80546525  0.58864555  0.47096974     0.62400
F3291       F  0.78765407  0.56418813  0.55359651    -0.22770
F3292       F  0.80252049  0.53984854  0.54365784    -0.20100
F3293       F  0.77296113  0.54294024  0.53791916    -0.19770
F3294       F  0.82199293  0.59712244  0.47195534    -0.19820
F3295       F  0.79237508  0.60136706  0.46734298    -0.20150
F3296       F  0.80590155  0.57658031  0.45671408    -0.22820
C3297       C  0.91154682  0.70824542  0.51329309    -0.05660
C3298       C  0.90470816  0.69226149  0.50566006     0.00270
C3299       C  0.91630448  0.68109091  0.49541071    -0.08300
C3300       C  0.93466631  0.68514591  0.49514863    -0.05680
C3301       C  0.94181884  0.70038230  0.50386295     0.00260
C3302       C  0.92996123  0.71270392  0.51236894    -0.08210
C3303       C  0.93660046  0.73014366  0.52081605     0.62170
H3304       H  0.90237475  0.71699880  0.52047835     0.12860
H3305       H  0.94370781  0.67606417  0.48817966     0.12870
C3306       C  0.90985114  0.66489420  0.48459642     0.62400
F3307       F  0.92279100  0.73982806  0.52870676    -0.22770
F3308       F  0.94425802  0.74095792  0.50764847    -0.20100
F3309       F  0.94917932  0.72638959  0.53403572    -0.19770
F3310       F  0.89315092  0.66810007  0.47708963    -0.19820
F3311       F  0.90910582  0.64984267  0.49562826    -0.20150
F3312       F  0.92147350  0.66116249  0.47049415    -0.22820
C3313       C  0.76546751  0.74816135  0.49790585    -0.05660
C3314       C  0.76173524  0.73126638  0.50569235     0.00270
C3315       C  0.74550275  0.72877165  0.51544196    -0.08300
C3316       C  0.73360877  0.74339786  0.51686535    -0.05680
C3317       C  0.73733983  0.76028063  0.50908859     0.00260
C3318       C  0.75352129  0.76276988  0.49928389    -0.08210
C3319       C  0.75822517  0.78045434  0.48995628     0.62170
H3320       H  0.77799032  0.74984159  0.49065841     0.12860
H3321       H  0.72107197  0.74172043  0.52408930     0.12870
C3322       C  0.74056615  0.71104386  0.52458209     0.62400
F3323       F  0.77264285  0.77853031  0.47831669    -0.22770
F3324       F  0.76289563  0.79322285  0.50269317    -0.20100
F3325       F  0.74380176  0.78657728  0.47991258    -0.19770
F3326       F  0.75493705  0.70450473  0.53443390    -0.19820
F3327       F  0.73551177  0.69855624  0.51171025    -0.20150
F3328       F  0.72629024  0.71307071  0.53637829    -0.22820
C3329       C  0.51386269  0.69758212  0.92092566    -0.05660
C3330       C  0.49693633  0.69591377  0.91278037     0.00270
C3331       C  0.48119026  0.69748124  0.92333368    -0.08300
C3332       C  0.48292185  0.69953559  0.94210914    -0.05680
C3333       C  0.49982750  0.70014824  0.95035181     0.00260
C3334       C  0.51557497  0.69967394  0.93973109    -0.08210
C3335       C  0.53398656  0.70106882  0.94839324     0.62170
H3336       H  0.52571575  0.69656455  0.91251586     0.12860
H3337       H  0.47108234  0.70010299  0.95058895     0.12870
C3338       C  0.46270664  0.69699262  0.91473056     0.62400
F3339       F  0.54759087  0.70077931  0.93566352    -0.22770
F3340       F  0.53656006  0.68675359  0.96012877    -0.20100
F3341       F  0.53525557  0.71708274  0.95790783    -0.19770
F3342       F  0.45963087  0.68021184  0.90718585    -0.19820
F3343       F  0.46165446  0.71004783  0.90138749    -0.20150
F3344       F  0.44926099  0.70030296  0.92719380    -0.22820
C3345       C  0.49413953  0.58176917  0.79759143    -0.05660
C3346       C  0.50013099  0.58856534  0.81424764     0.00270
C3347       C  0.50745374  0.57643439  0.82713864    -0.08300
C3348       C  0.50670333  0.55784625  0.82360232    -0.05680
C3349       C  0.49993498  0.55086107  0.80732310     0.00260
C3350       C  0.49416787  0.56311567  0.79369228    -0.08210
C3351       C  0.48781998  0.55678945  0.77525342     0.62170
H3352       H  0.48909024  0.59126208  0.78769020     0.12860
H3353       H  0.51158486  0.54854873  0.83378433     0.12870
C3354       C  0.51641226  0.58256260  0.84454251     0.62400
F3355       F  0.48218008  0.57101793  0.76450852    -0.22770
F3356       F  0.47354287  0.54497436  0.77717728    -0.20100
F3357       F  0.50176478  0.54828501  0.76635026    -0.19770
F3358       F  0.50357499  0.58495748  0.85778411    -0.19820
F3359       F  0.52587620  0.59844352  0.84194619    -0.20150
F3360       F  0.52854490  0.56979102  0.85068328    -0.22820
C3361       C  0.50683763  0.78775897  0.59229557    -0.05660
C3362       C  0.49839877  0.80324830  0.59917787     0.00270
C3363       C  0.48857982  0.81458396  0.58729915    -0.08300
C3364       C  0.48895984  0.81084222  0.56874047    -0.05680
C3365       C  0.49813481  0.79588887  0.56166978     0.00260
C3366       C  0.50679487  0.78372994  0.57368809    -0.08210
C3367       C  0.51633989  0.76688957  0.56703678     0.62170
H3368       H  0.51382459  0.77898478  0.60165603     0.12860
H3369       H  0.48209044  0.81983619  0.55948818     0.12870
C3370       C  0.47741702  0.83045648  0.59383643     0.62400
F3371       F  0.52483288  0.75773671  0.58093465    -0.22770
F3372       F  0.52921680  0.77153605  0.55439030    -0.20100
F3373       F  0.50401528  0.75521754  0.55935011    -0.19770
F3374       F  0.48840614  0.84517200  0.59691716    -0.19820
F3375       F  0.46831045  0.82600667  0.60950624    -0.20150
F3376       F  0.46470896  0.83546516  0.58113364    -0.22820
C3377       C  0.51666611  0.91230946  0.70493070    -0.05660
C3378       C  0.50065554  0.90252464  0.70684345     0.00270
C3379       C  0.48455185  0.91161395  0.71137004    -0.08300
C3380       C  0.48489276  0.93056520  0.71294275    -0.05680
C3381       C  0.50076415  0.94035644  0.71016583     0.00260
C3382       C  0.51703419  0.93118511  0.70673623    -0.08210
C3383       C  0.53462451  0.94140098  0.70492549     0.62170
H3384       H  0.52882679  0.90504166  0.70157069     0.12860
H3385       H  0.47266710  0.93795544  0.71574825     0.12870
C3386       C  0.46702488  0.90142095  0.71377633     0.62400
F3387       F  0.54904428  0.92985568  0.70261815    -0.22770
F3388       F  0.53763214  0.95146883  0.72035517    -0.20100
F3389       F  0.53388342  0.95283936  0.69018354    -0.19770
F3390       F  0.46852902  0.88948781  0.72806539    -0.19820
F3391       F  0.46303789  0.89192277  0.69821490    -0.20150
F3392       F  0.45284206  0.91293610  0.71737011    -0.22820
C3393       C  0.51490467  0.75616524  0.75088650    -0.05660
C3394       C  0.49874638  0.75742219  0.74126312     0.00270
C3395       C  0.48448326  0.74537685  0.74512337    -0.08300
C3396       C  0.48697026  0.73223874  0.75863171    -0.05680
C3397       C  0.50307024  0.73111282  0.76837666     0.00260
C3398       C  0.51737837  0.74305787  0.76440584    -0.08210
C3399       C  0.53526815  0.74165153  0.77412034     0.62170
H3400       H  0.52559518  0.76557559  0.74768185     0.12860
H3401       H  0.47624228  0.72290701  0.76193510     0.12870
C3402       C  0.46656839  0.74684524  0.73546564     0.62400
F3403       F  0.54786042  0.75350147  0.76708847    -0.22770
F3404       F  0.54193832  0.72430728  0.77243283    -0.20100
F3405       F  0.53306828  0.74562576  0.79220602    -0.19770
F3406       F  0.46878635  0.74325587  0.71730115    -0.19820
F3407       F  0.45976081  0.76409707  0.73750822    -0.20150
F3408       F  0.45407572  0.73475459  0.74226439    -0.22820
loop_ 
_geom_bond_atom_site_label_1 
_geom_bond_atom_site_label_2 
_geom_bond_distance 
_geom_bond_site_symmetry_2 
_ccdc_geom_bond_type 
N1            N2   1.322       .  A
N1            C5   1.347       .  A
N1           Cu9   2.072       .  S
N2            C3   1.343       .  A
N2           Cu8   2.070       .  S
C3            C4   1.381       .  A
C3            H6   1.082       .  S
C4            C5   1.383       .  A
C4         C3378   1.475       .  S
C5            H7   1.082       .  S
Cu8          N11   2.070       .  S
Cu9          N19   2.073       .  S
Cu10         N12   2.074       .  S
Cu10         N18   2.075       .  S
N11          N12   1.321       .  A
N11          C15   1.343       .  A
N12          C13   1.346       .  A
C13          C14   1.386       .  A
C13          H16   1.082       .  S
C14          C15   1.385       .  A
C14        C3362   1.484       .  S
C15          H17   1.079       .  S
N18          N19   1.323       .  A
N18          C22   1.345       .  A
N19          C20   1.344       .  A
C20          C21   1.381       .  A
C20          H23   1.082       .  S
C21          C22   1.382       .  A
C21        C3394   1.474       .  S
C22          H24   1.082       .  S
N25          N26   1.321       .  A
N25          C29   1.346       .  A
N25         Cu33   2.076       .  S
N26          C27   1.342       .  A
N26         Cu32   2.069       .  S
C27          C28   1.385       .  A
C27          H30   1.078       .  S
C28          C29   1.388       .  A
C28        C3346   1.487       .  S
C29          H31   1.082       .  S
Cu32         N35   2.069       .  S
Cu33         N43   2.077       .  S
Cu34         N36   2.071       .  S
Cu34         N42   2.072       .  S
N35          N36   1.322       .  A
N35          C39   1.343       .  A
N36          C37   1.347       .  A
C37          C38   1.382       .  A
C37          H40   1.082       .  S
C38          C39   1.381       .  A
C38        C3330   1.473       .  S
C39          H41   1.082       .  S
N42          N43   1.324       .  A
N42          C46   1.344       .  A
N43          C44   1.346       .  A
C44          C45   1.382       .  A
C44          H47   1.082       .  S
C45          C46   1.380       .  A
C45        C3397   1.473       .  S
C46          H48   1.082       .  S
N49          N50   1.322       .  A
N49          C53   1.345       .  A
N49         Cu57   2.065       .  S
N50          C51   1.345       .  A
N50         Cu56   2.078       .  S
C51          C52   1.382       .  A
C51          H54   1.082       .  S
C52          C53   1.380       .  A
C52        C3282   1.472       .  S
C53          H55   1.082       .  S
Cu56         N59   2.077       .  S
Cu57         N67   2.064       .  S
Cu58         N60   2.066       .  S
Cu58         N66   2.066       .  S
N59          N60   1.321       .  A
N59          C63   1.343       .  A
N60          C61   1.345       .  A
C61          C62   1.384       .  A
C61          H64   1.082       .  S
C62          C63   1.387       .  A
C62        C3298   1.484       .  S
C63          H65   1.079       .  S
N66          N67   1.321       .  A
N66          C70   1.342       .  A
N67          C68   1.343       .  A
C68          C69   1.385       .  A
C68          H71   1.077       .  S
C69          C70   1.385       .  A
C69        C3314   1.482       .  S
C70          H72   1.082       .  S
N73          N74   1.319       .  A
N73          C77   1.347       .  A
N73         Cu81   2.070       .  S
N74          C75   1.341       .  A
N74         Cu80   2.085       .  S
C75          C76   1.395       .  A
C75          H78   1.081       .  S
C76          C77   1.392       .  A
C76        C3253   1.505       .  S
C77          H79   1.075       .  S
Cu80         N83   2.085       .  S
Cu81         N91   2.070       .  S
Cu82         N84   2.063       .  S
Cu82         N90   2.064       .  S
N83          N84   1.320       .  A
N83          C87   1.345       .  A
N84          C85   1.346       .  A
C85          C86   1.385       .  A
C85          H88   1.079       .  S
C86          C87   1.389       .  A
C86        C3266   1.487       .  S
C87          H89   1.082       .  S
N90          N91   1.321       .  A
N90          C94   1.341       .  A
N91          C92   1.344       .  A
C92          C93   1.385       .  A
C92          H95   1.078       .  S
C93          C94   1.383       .  A
C93        C3317   1.481       .  S
C94          H96   1.082       .  S
N97          N98   1.321       .  A
N97         C101   1.346       .  A
N97        Cu105   2.067       .  S
N98          C99   1.342       .  A
N98        Cu104   2.086       .  S
C99         C100   1.391       .  A
C99         H102   1.082       .  S
C100        C101   1.387       .  A
C100       C3202   1.492       .  S
C101        H103   1.077       .  S
Cu104       N107   2.085       .  S
Cu105       N115   2.067       .  S
Cu106       N108   2.062       .  S
Cu106       N114   2.063       .  S
N107        N108   1.320       .  A
N107        C111   1.344       .  A
N108        C109   1.345       .  A
C109        C110   1.386       .  A
C109        H112   1.078       .  S
C110        C111   1.390       .  A
C110       C3218   1.490       .  S
C111        H113   1.082       .  S
N114        N115   1.320       .  A
N114        C118   1.341       .  A
N115        C116   1.344       .  A
C116        C117   1.387       .  A
C116        H119   1.077       .  S
C117        C118   1.385       .  A
C117       C3234   1.485       .  S
C118        H120   1.082       .  S
N121        N122   1.318       .  A
N121        C125   1.348       .  A
N121       Cu129   2.071       .  S
N122        C123   1.338       .  A
N122       Cu128   2.065       .  S
C123        C124   1.389       .  A
C123        H126   1.082       .  S
C124        C125   1.392       .  A
C124       C3186   1.495       .  S
C125        H127   1.077       .  S
Cu128       N131   2.064       .  S
Cu129       N139   2.073       .  S
Cu130       N132   2.070       .  S
Cu130       N138   2.072       .  S
N131        N132   1.315       .  A
N131        C135   1.338       .  A
N132        C133   1.346       .  A
C133        C134   1.398       .  A
C133        H136   1.073       .  S
C134        C135   1.396       .  A
C134       C3170   1.510       .  S
C135        H137   1.080       .  S
N138        N139   1.324       .  A
N138        C142   1.344       .  A
N139        C140   1.342       .  A
C140        C141   1.383       .  A
C140        H143   1.082       .  S
C141        C142   1.384       .  A
C141       C3237   1.481       .  S
C142        H144   1.078       .  S
N145        N146   1.322   1_556  A
N145        C149   1.344       .  A
N145       Cu153   2.057       .  S
N146        C147   1.346       .  A
N146       Cu152   2.087       .  S
C147        C148   1.385       .  A
C147        H150   1.082       .  S
C148        C149   1.379   1_554  A
C148       C3138   1.475       .  S
C149        H151   1.082       .  S
Cu152       N155   2.086       .  S
Cu153       N163   2.057       .  S
Cu154       N156   2.059       .  S
Cu154       N162   2.060       .  S
N155        N156   1.318       .  A
N155        C159   1.340       .  A
N156        C157   1.345       .  A
C157        C158   1.391       .  A
C157        H160   1.075       .  S
C158        C159   1.397       .  A
C158       C3125   1.505       .  S
C159        H161   1.081       .  S
N162        N163   1.321   1_554  A
N162        C166   1.341       .  A
N163        C164   1.342       .  A
C164        C165   1.382   1_556  A
C164        H167   1.079       .  S
C165        C166   1.382       .  A
C165       C3154   1.474       .  S
C166        H168   1.082       .  S
N169        N170   1.322   1_554  A
N169        C173   1.345       .  A
N169       Cu177   2.063       .  S
N170        C171   1.344       .  A
N170       Cu176   2.086       .  S
C171        C172   1.388   1_556  A
C171        H174   1.078       .  S
C172        C173   1.383       .  A
C172       C3090   1.486       .  S
C173        H175   1.082       .  S
Cu176       N179   2.086       .  S
Cu177       N187   2.062       .  S
Cu178       N180   2.057       .  S
Cu178       N186   2.057       .  S
N179        N180   1.319   1_556  A
N179        C183   1.343       .  A
N180        C181   1.345       .  A
C181        C182   1.386       .  A
C181        H184   1.078       .  S
C182        C183   1.392   1_554  A
C182       C3109   1.491       .  S
C183        H185   1.082       .  S
N186        N187   1.321       .  A
N186        C190   1.340       .  A
N187        C188   1.343       .  A
C188        C189   1.384       .  A
C188        H191   1.078       .  S
C189        C190   1.382       .  A
C189       C3157   1.476       .  S
C190        H192   1.082       .  S
N193        N194   1.322       .  A
N193        C197   1.347   1_565  A
N193       Cu201   2.077   1_565  S
N194        C195   1.342       .  A
N194       Cu200   2.081       .  S
C195        C196   1.388       .  A
C195        H198   1.082       .  S
C196        C197   1.389   1_565  A
C196       C3042   1.493       .  S
C197        H199   1.077       .  S
Cu200       N203   2.080       .  S
Cu201       N211   2.076       .  S
Cu202       N204   2.050       .  S
Cu202       N210   2.050       .  S
N203        N204   1.315       .  A
N203        C207   1.341       .  A
N204        C205   1.342       .  A
C205        C206   1.392       .  A
C205        H208   1.073       .  S
C206        C207   1.400       .  A
C206       C3058   1.508       .  S
C207        H209   1.081       .  S
N210        N211   1.319   1_565  A
N210        C214   1.340       .  A
N211        C212   1.344       .  A
C212        C213   1.391   1_545  A
C212        H215   1.082       .  S
C213        C214   1.384       .  A
C213       C3074   1.488       .  S
C214        H216   1.076       .  S
N217        N218   1.316       .  A
N217        C221   1.349       .  A
N217       Cu225   2.074       .  S
N218        C219   1.338       .  A
N218       Cu224   2.065       .  S
C219        C220   1.394       .  A
C219        H222   1.081       .  S
C220        C221   1.397       .  A
C220       C3010   1.508       .  S
C221        H223   1.075       .  S
Cu224       N227   2.065       .  S
Cu225       N235   2.077       .  S
Cu226       N228   2.062       .  S
Cu226       N234   2.065       .  S
N227        N228   1.317   1_565  A
N227        C231   1.337       .  A
N228        C229   1.348       .  A
C229        C230   1.393   1_545  A
C229        H232   1.076       .  S
C230        C231   1.392       .  A
C230       C3026   1.498       .  S
C231        H233   1.082       .  S
N234        N235   1.324   1_545  A
N234        C238   1.342       .  A
N235        C236   1.342       .  A
C236        C237   1.385       .  A
C236        H239   1.082       .  S
C237        C238   1.382   1_565  A
C237       C3077   1.480       .  S
C238        H240   1.078       .  S
N241        N242   1.322   1_655  A
N241        C245   1.347       .  A
N241       Cu249   2.073       .  S
N242        C243   1.343       .  A
N242       Cu248   2.069       .  S
C243        C244   1.380       .  A
C243        H246   1.082       .  S
C244        C245   1.382   1_455  A
C244       C2978   1.472       .  S
C245        H247   1.082       .  S
Cu248       N251   2.069       .  S
Cu249       N259   2.074       .  S
Cu250       N252   2.073   1_655  S
Cu250       N258   2.073       .  S
N251        N252   1.321       .  A
N251        C255   1.342       .  A
N252        C253   1.347   1_455  A
C253        C254   1.385   1_655  A
C253        H256   1.081       .  S
C254        C255   1.382       .  A
C254       C2965   1.477   1_455  S
C255        H257   1.082       .  S
N258        N259   1.324       .  A
N258        C262   1.344       .  A
N259        C260   1.345       .  A
C260        C261   1.380       .  A
C260        H263   1.082       .  S
C261        C262   1.380       .  A
C261       C2994   1.471       .  S
C262        H264   1.082       .  S
N265        N266   1.322       .  A
N265        C269   1.346       .  A
N265       Cu273   2.070       .  S
N266        C267   1.345       .  A
N266       Cu272   2.080       .  S
C267        C268   1.384       .  A
C267        H270   1.082       .  S
C268        C269   1.383       .  A
C268       C2946   1.478       .  S
C269        H271   1.081       .  S
Cu272       N275   2.080       .  S
Cu273       N283   2.071       .  S
Cu274       N276   2.072       .  S
Cu274       N282   2.072       .  S
N275        N276   1.323       .  A
N275        C279   1.345       .  A
N276        C277   1.346       .  A
C277        C278   1.382       .  A
C277        H280   1.082       .  S
C278        C279   1.384       .  A
C278       C2930   1.478       .  S
C279        H281   1.082       .  S
N282        N283   1.323       .  A
N282        C286   1.345       .  A
N283        C284   1.344       .  A
C284        C285   1.380       .  A
C284        H287   1.082       .  S
C285        C286   1.381       .  A
C285       C2997   1.471       .  S
C286        H288   1.082       .  S
N289        N290   1.322       .  A
N289        C293   1.347       .  A
N289       Cu297   2.076       .  S
N290        C291   1.341       .  A
N290       Cu296   2.069       .  S
C291        C292   1.381       .  A
C291        H294   1.082       .  S
C292        C293   1.385       .  A
C292       C2882   1.477       .  S
C293        H295   1.081       .  S
Cu296       N299   2.069       .  S
Cu297       N307   2.076       .  S
Cu298       N300   2.064       .  S
Cu298       N306   2.064       .  S
N299        N300   1.320       .  A
N299        C303   1.343       .  A
N300        C301   1.345       .  A
C301        C302   1.384       .  A
C301        H304   1.080       .  S
C302        C303   1.384       .  A
C302       C2898   1.478       .  S
C303        H305   1.082       .  S
N306        N307   1.321       .  A
N306        C310   1.342       .  A
N307        C308   1.343       .  A
C308        C309   1.388       .  A
C308        H311   1.082       .  S
C309        C310   1.385       .  A
C309       C2914   1.486       .  S
C310        H312   1.077       .  S
N313        N314   1.322       .  A
N313        C317   1.347       .  A
N313       Cu321   2.072       .  S
N314        C315   1.343       .  A
N314       Cu320   2.071       .  S
C315        C316   1.381       .  A
C315        H318   1.082       .  S
C316        C317   1.382       .  A
C316       C2866   1.474       .  S
C317        H319   1.082       .  S
Cu320       N323   2.070       .  S
Cu321       N331   2.073       .  S
Cu322       N324   2.064       .  S
Cu322       N330   2.064       .  S
N323        N324   1.322       .  A
N323        C327   1.344       .  A
N324        C325   1.345       .  A
C325        C326   1.379       .  A
C325        H328   1.082       .  S
C326        C327   1.380       .  A
C326       C2850   1.469       .  S
C327        H329   1.082       .  S
N330        N331   1.321       .  A
N330        C334   1.343       .  A
N331        C332   1.343       .  A
C332        C333   1.387       .  A
C332        H335   1.082       .  S
C333        C334   1.385       .  A
C333       C2917   1.484       .  S
C334        H336   1.077       .  S
O337       Cu345   2.013       .  S
O337        C347   1.276       .  A
O338       Cu345   2.010   1_545  S
O338        C348   1.277       .  A
O339       Cu345   2.046       .  S
O339        C349   1.284       .  A
O340       Cu345   2.050       .  S
O340        C350   1.284       .  A
O341       Cu346   1.960       .  S
O341        C350   1.268       .  A
O342       Cu346   1.967       .  S
O342        C349   1.269       .  A
O343       Cu346   2.010   1_545  S
O343        C348   1.278       .  A
O344       Cu346   2.002       .  S
O344        C347   1.276       .  A
Cu345      Cu346   2.365       .  S
C347       C3381   1.470       .  S
C348       C2885   1.479       .  S
C349       C2837   1.491       .  S
C350       C3029   1.497       .  S
N351        N352   1.323   1_655  A
N351        C355   1.347       .  A
N351       Cu359   2.074       .  S
N352        C353   1.344       .  A
N352       Cu358   2.073       .  S
C353        C354   1.380       .  A
C353        H356   1.082       .  S
C354        C355   1.382   1_455  A
C354       C2789   1.473       .  S
C355        H357   1.082       .  S
Cu358       N361   2.073       .  S
Cu359       N369   2.074       .  S
Cu360       N362   2.070   1_655  S
Cu360       N368   2.070       .  S
N361        N362   1.322       .  A
N361        C365   1.343       .  A
N362        C363   1.346       .  A
C363        C364   1.383       .  A
C363        H366   1.081   1_455  S
C364        C365   1.383       .  A
C364       C2802   1.477       .  S
C365        H367   1.082       .  S
N368        N369   1.324       .  A
N368        C372   1.344       .  A
N369        C370   1.345       .  A
C370        C371   1.380       .  A
C370        H373   1.082       .  S
C371        C372   1.379       .  A
C371       C2818   1.470       .  S
C372        H374   1.082       .  S
N375        N376   1.322       .  A
N375        C379   1.346       .  A
N375       Cu383   2.073       .  S
N376        C377   1.344       .  A
N376       Cu382   2.077       .  S
C377        C378   1.384       .  A
C377        H380   1.081       .  S
C378        C379   1.383       .  A
C378       C2770   1.480       .  S
C379        H381   1.082       .  S
Cu382       N385   2.077       .  S
Cu383       N393   2.073       .  S
Cu384       N386   2.069       .  S
Cu384       N392   2.070       .  S
N385        N386   1.322       .  A
N385        C389   1.345       .  A
N386        C387   1.346       .  A
C387        C388   1.381       .  A
C387        H390   1.082       .  S
C388        C389   1.382       .  A
C388       C2754   1.473       .  S
C389        H391   1.082       .  S
N392        N393   1.323       .  A
N392        C396   1.344       .  A
N393        C394   1.345       .  A
C394        C395   1.381       .  A
C394        H397   1.082       .  S
C395        C396   1.380       .  A
C395       C2821   1.471       .  S
C396        H398   1.082       .  S
N399        N400   1.320       .  A
N399        C403   1.343       .  A
N399       Cu407   2.054       .  S
N400        C401   1.344       .  A
N400       Cu406   2.079       .  S
C401        C402   1.388       .  A
C401        H404   1.079       .  S
C402        C403   1.382       .  A
C402       C2706   1.481   1_545  S
C403        H405   1.082   1_545  S
Cu406       N409   2.080       .  S
Cu407       N417   2.055   1_545  S
Cu408       N410   2.073       .  S
Cu408       N416   2.073       .  S
N409        N410   1.321   1_545  A
N409        C413   1.341       .  A
N410        C411   1.348       .  A
C411        C412   1.388       .  A
C411        H414   1.078       .  S
C412        C413   1.388   1_565  A
C412       C2722   1.490       .  S
C413        H415   1.082       .  S
N416        N417   1.320       .  A
N416        C420   1.342       .  A
N417        C418   1.341       .  A
C418        C419   1.384       .  A
C418        H421   1.077   1_565  S
C419        C420   1.388       .  A
C419       C2738   1.484       .  S
C420        H422   1.082       .  S
N423        N424   1.322       .  A
N423        C427   1.347   1_565  A
N423       Cu431   2.072   1_565  S
N424        C425   1.342       .  A
N424       Cu430   2.089       .  S
C425        C426   1.391       .  A
C425        H428   1.082       .  S
C426        C427   1.388   1_565  A
C426       C2690   1.494       .  S
C427        H429   1.078       .  S
Cu430       N433   2.088       .  S
Cu431       N441   2.071       .  S
Cu432       N434   2.052       .  S
Cu432       N440   2.053       .  S
N433        N434   1.318       .  A
N433        C437   1.344       .  A
N434        C435   1.344       .  A
C435        C436   1.387       .  A
C435        H438   1.076       .  S
C436        C437   1.395       .  A
C436       C2834   1.498       .  S
C437        H439   1.082       .  S
N440        N441   1.320   1_565  A
N440        C444   1.340       .  A
N441        C442   1.343       .  A
C442        C443   1.389   1_545  A
C442        H445   1.082       .  S
C443        C444   1.384       .  A
C443       C2741   1.485       .  S
C444        H446   1.076       .  S
O447       Cu455   1.974   1_655  S
O447        C457   1.270       .  A
O448       Cu455   1.971       .  S
O448        C458   1.274       .  A
O449       Cu455   2.006   1_545  S
O449        C459   1.277       .  A
O450       Cu455   2.003       .  S
O450        C460   1.276   1_455  A
O451       Cu456   2.010       .  S
O451        C460   1.276       .  A
O452       Cu456   2.010   1_545  S
O452        C459   1.276   1_655  A
O453       Cu456   2.037   1_455  S
O453        C458   1.281       .  A
O454       Cu456   2.033       .  S
O454        C457   1.283       .  A
Cu455      Cu456   2.370   1_455  S
C457       C3061   1.497       .  S
C458       C2709   1.481       .  S
C459       C2786   1.470   1_455  S
C460       C2981   1.468       .  S
N461        N462   1.320       .  A
N461        C465   1.345       .  A
N461       Cu469   2.065       .  S
N462        C463   1.344       .  A
N462       Cu468   2.072       .  S
C463        C464   1.385       .  A
C463        H466   1.080       .  S
C464        C465   1.384       .  A
C464       C2658   1.480       .  S
C465        H467   1.082       .  S
Cu468       N471   2.072       .  S
Cu469       N479   2.066       .  S
Cu470       N472   2.084       .  S
Cu470       N478   2.085       .  S
N471        N472   1.322       .  A
N471        C475   1.341       .  A
N472        C473   1.349       .  A
C473        C474   1.388       .  A
C473        H476   1.082       .  S
C474        C475   1.384       .  A
C474       C2642   1.488       .  S
C475        H477   1.079       .  S
N478        N479   1.322       .  A
N478        C482   1.345       .  A
N479        C480   1.343       .  A
C480        C481   1.385       .  A
C480        H483   1.077       .  S
C481        C482   1.390       .  A
C481       C2674   1.490       .  S
C482        H484   1.082       .  S
N485        N486   1.322       .  A
N485        C489   1.349       .  A
N485       Cu493   2.081       .  S
N486        C487   1.342       .  A
N486       Cu492   2.079       .  S
C487        C488   1.386       .  A
C487        H490   1.082       .  S
C488        C489   1.389       .  A
C488       C2629   1.489       .  S
C489        H491   1.080       .  S
Cu492       N495   2.078       .  S
Cu493       N503   2.081       .  S
Cu494       N496   2.066       .  S
Cu494       N502   2.067       .  S
N495        N496   1.319       .  A
N495        C499   1.344       .  A
N496        C497   1.345       .  A
C497        C498   1.387       .  A
C497        H500   1.082       .  S
C498        C499   1.389       .  A
C498       C2610   1.491       .  S
C499        H501   1.077       .  S
N502        N503   1.321       .  A
N502        C506   1.343       .  A
N503        C504   1.344       .  A
C504        C505   1.390       .  A
C504        H507   1.082       .  S
C505        C506   1.386       .  A
C505       C2677   1.491       .  S
C506        H508   1.077       .  S
O509       Cu517   1.996       .  S
O509        C519   1.275       .  A
O510       Cu517   1.996       .  S
O510        C520   1.276       .  A
O511       Cu517   1.983       .  S
O511        C521   1.273       .  A
O512       Cu517   1.982   1_455  S
O512        C522   1.276       .  A
O513       Cu518   2.039   1_455  S
O513        C522   1.280       .  A
O514       Cu518   2.034       .  S
O514        C521   1.282       .  A
O515       Cu518   2.022       .  S
O515        C520   1.278       .  A
O516       Cu518   2.021       .  S
O516        C519   1.278       .  A
Cu517      Cu518   2.367       .  S
C519       C2949   1.473       .  S
C520       C2773   1.478       .  S
C521       C3221   1.488       .  S
C522       C2645   1.500       .  S
O523       Cu531   1.979       .  S
O523        C533   1.271       .  A
O524       Cu531   1.975       .  S
O524        C534   1.271       .  A
O525       Cu531   1.994       .  S
O525        C535   1.278       .  A
O526       Cu531   2.001       .  S
O526        C536   1.277       .  A
O527       Cu532   2.013       .  S
O527        C536   1.276       .  A
O528       Cu532   2.021       .  S
O528        C535   1.277       .  A
O529       Cu532   2.042       .  S
O529        C534   1.283       .  A
O530       Cu532   2.042       .  S
O530        C533   1.283       .  A
Cu531      Cu532   2.363       .  S
C533       C2626   1.496       .  S
C534       C3189   1.494       .  S
C535       C3349   1.493       .  S
C536       C2869   1.471       .  S
N537        N538   1.322       .  A
N537        C541   1.347       .  A
N537       Cu545   2.078       .  S
N538        C539   1.342       .  A
N538       Cu544   2.070       .  S
C539        C540   1.381       .  A
C539        H542   1.081       .  S
C540        C541   1.385       .  A
C540       C2562   1.478       .  S
C541        H543   1.082       .  S
Cu544       N547   2.070       .  S
Cu545       N555   2.079       .  S
Cu546       N548   2.067       .  S
Cu546       N554   2.067       .  S
N547        N548   1.322       .  A
N547        C551   1.343       .  A
N548        C549   1.346       .  A
C549        C550   1.381       .  A
C549        H552   1.082       .  S
C550        C551   1.381       .  A
C550       C2578   1.471       .  S
C551        H553   1.082       .  S
N554        N555   1.324       .  A
N554        C558   1.343       .  A
N555        C556   1.346       .  A
C556        C557   1.381       .  A
C556        H559   1.082       .  S
C557        C558   1.378       .  A
C557       C2594   1.470       .  S
C558        H560   1.082       .  S
N561        N562   1.322       .  A
N561        C565   1.347       .  A
N561       Cu569   2.075       .  S
N562        C563   1.342       .  A
N562       Cu568   2.068       .  S
C563        C564   1.382       .  A
C563        H566   1.081       .  S
C564        C565   1.384       .  A
C564       C2533   1.478       .  S
C565        H567   1.082       .  S
Cu568       N571   2.068       .  S
Cu569       N579   2.075       .  S
Cu570       N572   2.071       .  S
Cu570       N578   2.072       .  S
N571        N572   1.321       .  A
N571        C575   1.342       .  A
N572        C573   1.347       .  A
C573        C574   1.383       .  A
C573        H576   1.082       .  S
C574        C575   1.381       .  A
C574       C2546   1.475       .  S
C575        H577   1.082       .  S
N578        N579   1.324       .  A
N578        C582   1.344       .  A
N579        C580   1.345       .  A
C580        C581   1.380       .  A
C580        H583   1.082       .  S
C581        C582   1.379       .  A
C581       C2597   1.470       .  S
C582        H584   1.082       .  S
O585       Cu593   2.013   1_556  S
O585        C595   1.277       .  A
O586       Cu593   2.006       .  S
O586        C596   1.275       .  A
O587       Cu593   2.046       .  S
O587        C597   1.284       .  A
O588       Cu593   2.049       .  S
O588        C598   1.284       .  A
O589       Cu594   1.961       .  S
O589        C598   1.268       .  A
O590       Cu594   1.964       .  S
O590        C597   1.269       .  A
O591       Cu594   2.010       .  S
O591        C596   1.278       .  A
O592       Cu594   1.998   1_556  S
O592        C595   1.276       .  A
Cu593      Cu594   2.366       .  S
C595       C3333   1.467       .  S
C596       C2565   1.475       .  S
C597       C3106   1.493       .  S
C598       C2514   1.495       .  S
N599        N600   1.317   1_554  A
N599        C603   1.344       .  A
N599       Cu607   2.050       .  S
N600        C601   1.342       .  A
N600       Cu606   2.085       .  S
C601        C602   1.397   1_556  A
C601        H604   1.082       .  S
C602        C603   1.389       .  A
C602       C2466   1.500       .  S
C603        H605   1.075       .  S
Cu606       N609   2.086   1_556  S
Cu607       N617   2.051       .  S
Cu608       N610   2.074       .  S
Cu608       N616   2.073       .  S
N609        N610   1.322       .  A
N609        C613   1.342   1_554  A
N610        C611   1.348       .  A
C611        C612   1.388       .  A
C611        H614   1.078       .  S
C612        C613   1.389   1_554  A
C612       C2485   1.493       .  S
C613        H615   1.082       .  S
N616        N617   1.319       .  A
N616        C620   1.343       .  A
N617        C618   1.340       .  A
C618        C619   1.384       .  A
C618        H621   1.075       .  S
C619        C620   1.390       .  A
C619       C2498   1.488       .  S
C620        H622   1.082       .  S
N623        N624   1.318   1_556  A
N623        C627   1.348       .  A
N623       Cu631   2.071       .  S
N624        C625   1.339       .  A
N624       Cu630   2.069       .  S
C625        C626   1.391       .  A
C625        H628   1.082       .  S
C626        C627   1.393   1_554  A
C626       C2450   1.499       .  S
C627        H629   1.076       .  S
Cu630       N633   2.069       .  S
Cu631       N641   2.073   1_556  S
Cu632       N634   2.061       .  S
Cu632       N640   2.063       .  S
N633        N634   1.317       .  A
N633        C637   1.338       .  A
N634        C635   1.346       .  A
C635        C636   1.392       .  A
C635        H638   1.076       .  S
C636        C637   1.393       .  A
C636       C2517   1.499       .  S
C637        H639   1.082       .  S
N640        N641   1.323       .  A
N640        C644   1.342       .  A
N641        C642   1.342   1_554  A
C642        C643   1.385   1_556  A
C642        H645   1.082       .  S
C643        C644   1.382       .  A
C643       C2501   1.479       .  S
C644        H646   1.078       .  S
N647        N648   1.322       .  A
N647        C651   1.347       .  A
N647       Cu655   2.071       .  S
N648        C649   1.344       .  A
N648       Cu654   2.073       .  S
C649        C650   1.381       .  A
C649        H652   1.082       .  S
C650        C651   1.381       .  A
C650       C2402   1.472       .  S
C651        H653   1.082       .  S
Cu654       N657   2.073       .  S
Cu655       N665   2.072       .  S
Cu656       N658   2.072       .  S
Cu656       N664   2.072       .  S
N657        N658   1.322       .  A
N657        C661   1.344       .  A
N658        C659   1.346       .  A
C659        C660   1.383       .  A
C659        H662   1.082       .  S
C660        C661   1.382       .  A
C660       C2418   1.475       .  S
C661        H663   1.082       .  S
N664        N665   1.323       .  A
N664        C668   1.344       .  A
N665        C666   1.344       .  A
C666        C667   1.382       .  A
C666        H669   1.082       .  S
C667        C668   1.381       .  A
C667       C2434   1.474       .  S
C668        H670   1.082       .  S
N671        N672   1.323       .  A
N671        C675   1.346       .  A
N671       Cu679   2.070       .  S
N672        C673   1.345       .  A
N672       Cu678   2.081       .  S
C673        C674   1.383       .  A
C673        H676   1.082       .  S
C674        C675   1.381       .  A
C674       C2373   1.476       .  S
C675        H677   1.082       .  S
Cu678       N681   2.081       .  S
Cu679       N689   2.070       .  S
Cu680       N682   2.072       .  S
Cu680       N688   2.072       .  S
N681        N682   1.323       .  A
N681        C685   1.345       .  A
N682        C683   1.346       .  A
C683        C684   1.381       .  A
C683        H686   1.082       .  S
C684        C685   1.382       .  A
C684       C2386   1.475       .  S
C685        H687   1.082       .  S
N688        N689   1.322       .  A
N688        C692   1.344       .  A
N689        C690   1.344       .  A
C690        C691   1.382       .  A
C690        H693   1.082       .  S
C691        C692   1.382       .  A
C691       C2437   1.474       .  S
C692        H694   1.082       .  S
O695       Cu703   1.957       .  S
O695        C705   1.267       .  A
O696       Cu703   1.962   1_455  S
O696        C706   1.268       .  A
O697       Cu703   2.007   1_556  S
O697        C707   1.277       .  A
O698       Cu703   2.008       .  S
O698        C708   1.277       .  A
O699       Cu704   2.008       .  S
O699        C708   1.276       .  A
O700       Cu704   2.012   1_556  S
O700        C707   1.277       .  A
O701       Cu704   2.050   1_455  S
O701        C706   1.285       .  A
O702       Cu704   2.056       .  S
O702        C705   1.285       .  A
Cu703      Cu704   2.363       .  S
C705       C3122   1.500       .  S
C706       C2469   1.497       .  S
C707       C2962   1.477       .  S
C708       C2405   1.469       .  S
N709        N710   1.317       .  A
N709        C713   1.349       .  A
N709       Cu717   2.083       .  S
N710        C711   1.338       .  A
N710       Cu716   2.053       .  S
C711        C712   1.385       .  A
C711        H714   1.076       .  S
C712        C713   1.395       .  A
C712       C2338   1.495       .  S
C713        H715   1.082       .  S
Cu716       N719   2.053       .  S
Cu717       N727   2.086       .  S
Cu718       N720   2.074       .  S
Cu718       N726   2.077       .  S
N719        N720   1.316       .  A
N719        C723   1.335       .  A
N720        C721   1.350       .  A
C721        C722   1.395       .  A
C721        H724   1.077       .  S
C722        C723   1.388       .  A
C722       C2322   1.496       .  S
C723        H725   1.082       .  S
N726        N727   1.325       .  A
N726        C730   1.343       .  A
N727        C728   1.345       .  A
C728        C729   1.386       .  A
C728        H731   1.082       .  S
C729        C730   1.384       .  A
C729       C2354   1.487       .  S
C730        H732   1.077       .  S
N733        N734   1.318       .  A
N733        C737   1.348       .  A
N733       Cu741   2.079       .  S
N734        C735   1.340       .  A
N734       Cu740   2.060       .  S
C735        C736   1.386       .  A
C735        H738   1.076       .  S
C736        C737   1.393       .  A
C736       C2293   1.494       .  S
C737        H739   1.082       .  S
Cu740       N743   2.060       .  S
Cu741       N751   2.082       .  S
Cu742       N744   2.077       .  S
Cu742       N750   2.080       .  S
N743        N744   1.317       .  A
N743        C747   1.336       .  A
N744        C745   1.351       .  A
C745        C746   1.397       .  A
C745        H748   1.077       .  S
C746        C747   1.390       .  A
C746       C2306   1.502       .  S
C747        H749   1.082       .  S
N750        N751   1.324       .  A
N750        C754   1.342       .  A
N751        C752   1.346       .  A
C752        C753   1.387       .  A
C752        H755   1.077       .  S
C753        C754   1.386       .  A
C753       C2357   1.489       .  S
C754        H756   1.082       .  S
O757       Cu765   1.996       .  S
O757        C767   1.275       .  A
O758       Cu765   1.999       .  S
O758        C768   1.276       .  A
O759       Cu765   1.975       .  S
O759        C769   1.275       .  A
O760       Cu765   1.975   1_455  S
O760        C770   1.271       .  A
O761       Cu766   2.035   1_455  S
O761        C770   1.282       .  A
O762       Cu766   2.034       .  S
O762        C769   1.280       .  A
O763       Cu766   2.020       .  S
O763        C768   1.278       .  A
O764       Cu766   2.024       .  S
O764        C767   1.279       .  A
Cu765      Cu766   2.369       .  S
C767       C2370   1.472       .  S
C768       C2933   1.474       .  S
C769       C3301   1.487       .  S
C770       C2325   1.495       .  S
O771       Cu779   2.033       .  S
O771        C781   1.279       .  A
O772       Cu779   2.036       .  S
O772        C782   1.281       .  A
O773       Cu779   2.020       .  S
O773        C783   1.278       .  A
O774       Cu779   2.018       .  S
O774        C784   1.278       .  A
O775       Cu780   1.995       .  S
O775        C784   1.276       .  A
O776       Cu780   1.994       .  S
O776        C783   1.277       .  A
O777       Cu780   1.984       .  S
O777        C782   1.273       .  A
O778       Cu780   1.986       .  S
O778        C781   1.277       .  A
Cu779      Cu780   2.367       .  S
C781       C2290   1.498       .  S
C782       C3269   1.485       .  S
C783       C3365   1.486       .  S
C784       C2530   1.475       .  S
N785        N786   1.322       .  A
N785        C789   1.346       .  A
N785       Cu793   2.066       .  S
N786        C787   1.343       .  A
N786       Cu792   2.070       .  S
C787        C788   1.381       .  A
C787        H790   1.082       .  S
C788        C789   1.381       .  A
C788       C2258   1.472       .  S
C789        H791   1.082       .  S
Cu792       N795   2.070       .  S
Cu793       N803   2.067       .  S
Cu794       N796   2.071       .  S
Cu794       N802   2.072       .  S
N795        N796   1.322       .  A
N795        C799   1.343       .  A
N796        C797   1.346       .  A
C797        C798   1.382       .  A
C797        H800   1.082       .  S
C798        C799   1.381       .  A
C798       C2242   1.474       .  S
C799        H801   1.082       .  S
N802        N803   1.323       .  A
N802        C806   1.344       .  A
N803        C804   1.344       .  A
C804        C805   1.379       .  A
C804        H807   1.082       .  S
C805        C806   1.380       .  A
C805       C2274   1.468       .  S
C806        H808   1.082       .  S
N809        N810   1.322       .  A
N809        C813   1.346       .  A
N809       Cu817   2.066       .  S
N810        C811   1.344       .  A
N810       Cu816   2.074       .  S
C811        C812   1.381       .  A
C811        H814   1.082       .  S
C812        C813   1.381       .  A
C812       C2210   1.472       .  S
C813        H815   1.082       .  S
Cu816       N819   2.073       .  S
Cu817       N827   2.067       .  S
Cu818       N820   2.073       .  S
Cu818       N826   2.074       .  S
N819        N820   1.319       .  A
N819        C823   1.341       .  A
N820        C821   1.346       .  A
C821        C822   1.392       .  A
C821        H824   1.076       .  S
C822        C823   1.391       .  A
C822       C2226   1.498       .  S
C823        H825   1.082       .  S
N826        N827   1.323       .  A
N826        C830   1.345       .  A
N827        C828   1.344       .  A
C828        C829   1.379       .  A
C828        H831   1.082       .  S
C829        C830   1.381       .  A
C829       C2277   1.469       .  S
C830        H832   1.082       .  S
O833       Cu841   2.000       .  S
O833        C843   1.277       .  A
O834       Cu841   2.006   1_545  S
O834        C844   1.277       .  A
O835       Cu841   1.965       .  S
O835        C845   1.269       .  A
O836       Cu841   1.965       .  S
O836        C846   1.274       .  A
O837       Cu842   2.057       .  S
O837        C846   1.283       .  A
O838       Cu842   2.055       .  S
O838        C845   1.285       .  A
O839       Cu842   2.007   1_545  S
O839        C844   1.276       .  A
O840       Cu842   2.011       .  S
O840        C843   1.276       .  A
Cu841      Cu842   2.366       .  S
C843       C2549   1.471       .  S
C844       C2245   1.471       .  S
C845       C2194   1.496       .  S
C846       C2178   1.505       .  S
O847       Cu855   2.011   1_556  S
O847        C857   1.276       .  A
O848       Cu855   2.013       .  S
O848        C858   1.277       .  A
O849       Cu855   2.046       .  S
O849        C859   1.282       .  A
O850       Cu855   2.047       .  S
O850        C860   1.282       .  A
O851       Cu856   1.978       .  S
O851        C860   1.275       .  A
O852       Cu856   1.981       .  S
O852        C859   1.276       .  A
O853       Cu856   1.999       .  S
O853        C858   1.276       .  A
O854       Cu856   2.000   1_556  S
O854        C857   1.276       .  A
Cu855      Cu856   2.369       .  S
C857       C2853   1.468       .  S
C858       C2213   1.468       .  S
C859       C2162   1.503       .  S
C860       C2146   1.495       .  S
N861        N862   1.320       .  A
N861        C865   1.346       .  A
N861       Cu869   2.069       .  S
N862        C863   1.342       .  A
N862       Cu868   2.078       .  S
C863        C864   1.389       .  A
C863        H866   1.082       .  S
C864        C865   1.388       .  A
C864       C2114   1.491       .  S
C865        H867   1.078       .  S
Cu868       N871   2.077       .  S
Cu869       N879   2.069       .  S
Cu870       N872   2.069       .  S
Cu870       N878   2.070       .  S
N871        N872   1.320       .  A
N871        C875   1.342       .  A
N872        C873   1.346       .  A
C873        C874   1.388       .  A
C873        H876   1.082       .  S
C874        C875   1.388       .  A
C874       C2101   1.491       .  S
C875        H877   1.077       .  S
N878        N879   1.322       .  A
N878        C882   1.343       .  A
N879        C880   1.344       .  A
C880        C881   1.384       .  A
C880        H883   1.079       .  S
C881        C882   1.384       .  A
C881       C2133   1.481       .  S
C882        H884   1.082       .  S
N885        N886   1.320       .  A
N885        C889   1.348       .  A
N885       Cu893   2.076       .  S
N886        C887   1.341       .  A
N886       Cu892   2.080       .  S
C887        C888   1.391       .  A
C887        H890   1.082       .  S
C888        C889   1.392       .  A
C888       C2085   1.499       .  S
C889        H891   1.077       .  S
Cu892       N895   2.079       .  S
Cu893       N903   2.077       .  S
Cu894       N896   2.065       .  S
Cu894       N902   2.066       .  S
N895        N896   1.319       .  A
N895        C899   1.343       .  A
N896        C897   1.345       .  A
C897        C898   1.389       .  A
C897        H900   1.082       .  S
C898        C899   1.391       .  A
C898       C2066   1.496       .  S
C899        H901   1.076       .  S
N902        N903   1.322       .  A
N902        C906   1.343       .  A
N903        C904   1.345       .  A
C904        C905   1.386       .  A
C904        H907   1.082       .  S
C905        C906   1.383       .  A
C905       C2130   1.482       .  S
C906        H908   1.079       .  S
O909       Cu917   2.017       .  S
O909        C919   1.277       .  A
O910       Cu917   2.020       .  S
O910        C920   1.278       .  A
O911       Cu917   2.040   1_455  S
O911        C921   1.280       .  A
O912       Cu917   2.035       .  S
O912        C922   1.282       .  A
O913       Cu918   1.975       .  S
O913        C922   1.271       .  A
O914       Cu918   1.973   1_455  S
O914        C921   1.275       .  A
O915       Cu918   1.998   1_455  S
O915        C920   1.276   1_455  A
O916       Cu918   2.000       .  S
O916        C919   1.276       .  A
Cu917      Cu918   2.368       .  S
C919       C2757   1.469       .  S
C920       C2050   1.472       .  S
C921       C2098   1.498       .  S
C922       C2034   1.491       .  S
O923       Cu931   1.976       .  S
O923        C933   1.271       .  A
O924       Cu931   1.976   1_545  S
O924        C934   1.275       .  A
O925       Cu931   1.970       .  S
O925        C935   1.269       .  A
O926       Cu931   1.966       .  S
O926        C936   1.269       .  A
O927       Cu932   2.054       .  S
O927        C936   1.284       .  A
O928       Cu932   2.049       .  S
O928        C935   1.283       .  A
O929       Cu932   2.041   1_545  S
O929        C934   1.280       .  A
O930       Cu932   2.041       .  S
O930        C933   1.282       .  A
Cu931      Cu932   2.352       .  S
C933       C2309   1.496       .  S
C934       C2069   1.499       .  S
C935       C2693   1.498       .  S
C936       C2021   1.497       .  S
N937        N938   1.319       .  A
N937        C941   1.348       .  A
N937       Cu945   2.082       .  S
N938        C939   1.343       .  A
N938       Cu944   2.084       .  S
C939        C940   1.392       .  A
C939        H942   1.076       .  S
C940        C941   1.393       .  A
C940       C1989   1.504       .  S
C941        H943   1.082       .  S
Cu944       N947   2.084       .  S
Cu945       N955   2.083       .  S
Cu946       N948   2.067   1_556  S
Cu946       N954   2.066       .  S
N947        N948   1.320       .  A
N947        C951   1.342       .  A
N948        C949   1.347   1_554  A
C949        C950   1.387   1_556  A
C949        H952   1.079       .  S
C950        C951   1.389       .  A
C950       C1970   1.490       .  S
C951        H953   1.082       .  S
N954        N955   1.322   1_556  A
N954        C958   1.343       .  A
N955        C956   1.345       .  A
C956        C957   1.389       .  A
C956        H959   1.082       .  S
C957        C958   1.385   1_554  A
C957       C2005   1.490       .  S
C958        H960   1.076       .  S
N961        N962   1.321   1_554  A
N961        C965   1.345       .  A
N961       Cu969   2.062       .  S
N962        C963   1.344       .  A
N962       Cu968   2.083       .  S
C963        C964   1.386   1_556  A
C963        H966   1.082       .  S
C964        C965   1.382       .  A
C964       C1957   1.478       .  S
C965        H967   1.081       .  S
Cu968       N971   2.083       .  S
Cu969       N979   2.061       .  S
Cu970       N972   2.082       .  S
Cu970       N978   2.082       .  S
N971        N972   1.320   1_556  A
N971        C975   1.343       .  A
N972        C973   1.348       .  A
C973        C974   1.391       .  A
C973        H976   1.082       .  S
C974        C975   1.391   1_554  A
C974       C2165   1.500       .  S
C975        H977   1.075       .  S
N978        N979   1.321       .  A
N978        C982   1.345       .  A
N979        C980   1.342       .  A
C980        C981   1.385       .  A
C980        H983   1.076       .  S
C981        C982   1.390       .  A
C981       C2002   1.490       .  S
C982        H984   1.082       .  S
N985        N986   1.318       .  A
N985        C989   1.346       .  A
N985       Cu993   2.061       .  S
N986        C987   1.343       .  A
N986       Cu992   2.082       .  S
C987        C988   1.391       .  A
C987        H990   1.082       .  S
C988        C989   1.388       .  A
C988       C1922   1.493       .  S
C989        H991   1.078   1_565  S
Cu992       N995   2.082       .  S
Cu993      N1003   2.062   1_565  S
Cu994       N996   2.075   1_545  S
Cu994      N1002   2.074       .  S
N995        N996   1.321       .  A
N995        C999   1.342       .  A
N996        C997   1.347   1_565  A
C997        C998   1.389   1_545  A
C997       H1000   1.082       .  S
C998        C999   1.389       .  A
C998       C1906   1.495       .  S
C999       H1001   1.076       .  S
N1002      N1003   1.320       .  A
N1002      C1006   1.345       .  A
N1003      C1004   1.339   1_545  A
C1004      C1005   1.387   1_565  A
C1004      H1007   1.082       .  S
C1005      C1006   1.391       .  A
C1005      C1938   1.492   1_545  S
C1006      H1008   1.076       .  S
N1009      N1010   1.319       .  A
N1009      C1013   1.348       .  A
N1009     Cu1017   2.071       .  S
N1010      C1011   1.340       .  A
N1010     Cu1016   2.078       .  S
C1011      C1012   1.391       .  A
C1011      H1014   1.082       .  S
C1012      C1013   1.391       .  A
C1012      C2018   1.497       .  S
C1013      H1015   1.077       .  S
Cu1016     N1019   2.078       .  S
Cu1017     N1027   2.072       .  S
Cu1018     N1020   2.067       .  S
Cu1018     N1026   2.069   1_545  S
N1019      N1020   1.318   1_565  A
N1019      C1023   1.341       .  A
N1020      C1021   1.347       .  A
C1021      C1022   1.391   1_545  A
C1021      H1024   1.076       .  S
C1022      C1023   1.393       .  A
C1022      C2197   1.499   1_565  S
C1023      H1025   1.082       .  S
N1026      N1027   1.323       .  A
N1026      C1030   1.342       .  A
N1027      C1028   1.343       .  A
C1028      C1029   1.386       .  A
C1028      H1031   1.077       .  S
C1029      C1030   1.384       .  A
C1029      C1941   1.483       .  S
C1030      H1032   1.082   1_565  S
N1033      N1034   1.322   1_655  A
N1033      C1037   1.347       .  A
N1033     Cu1041   2.072       .  S
N1034      C1035   1.343       .  A
N1034     Cu1040   2.067       .  S
C1035      C1036   1.380       .  A
C1035      H1038   1.082       .  S
C1036      C1037   1.382   1_455  A
C1036      C1861   1.473       .  S
C1037      H1039   1.082       .  S
Cu1040     N1043   2.067   1_455  S
Cu1041     N1051   2.073       .  S
Cu1042     N1044   2.078       .  S
Cu1042     N1050   2.079       .  S
N1043      N1044   1.322       .  A
N1043      C1047   1.342       .  A
N1044      C1045   1.347       .  A
C1045      C1046   1.385       .  A
C1045      H1048   1.082       .  S
C1046      C1047   1.382       .  A
C1046      C1874   1.479       .  S
C1047      H1049   1.081   1_655  S
N1050      N1051   1.324       .  A
N1050      C1054   1.346       .  A
N1051      C1052   1.344       .  A
C1052      C1053   1.380       .  A
C1052      H1055   1.082       .  S
C1053      C1054   1.381       .  A
C1053      C1890   1.473       .  S
C1054      H1056   1.082       .  S
N1057      N1058   1.322       .  A
N1057      C1061   1.346       .  A
N1057     Cu1065   2.071       .  S
N1058      C1059   1.345       .  A
N1058     Cu1064   2.080       .  S
C1059      C1060   1.383       .  A
C1059      H1062   1.082       .  S
C1060      C1061   1.382       .  A
C1060      C2053   1.476       .  S
C1061      H1063   1.082       .  S
Cu1064     N1067   2.080       .  S
Cu1065     N1075   2.071       .  S
Cu1066     N1068   2.075       .  S
Cu1066     N1074   2.075       .  S
N1067      N1068   1.323       .  A
N1067      C1071   1.345       .  A
N1068      C1069   1.347       .  A
C1069      C1070   1.382       .  A
C1069      H1072   1.082       .  S
C1070      C1071   1.382       .  A
C1070      C1845   1.476       .  S
C1071      H1073   1.082       .  S
N1074      N1075   1.323       .  A
N1074      C1078   1.345       .  A
N1075      C1076   1.344       .  A
C1076      C1077   1.380       .  A
C1076      H1079   1.082       .  S
C1077      C1078   1.381       .  A
C1077      C1893   1.472       .  S
C1078      H1080   1.082       .  S
O1081     Cu1089   2.044   1_455  S
O1081      C1091   1.283       .  A
O1082     Cu1089   2.043       .  S
O1082      C1092   1.281       .  A
O1083     Cu1089   2.018       .  S
O1083      C1093   1.278   1_655  A
O1084     Cu1089   2.011   1_545  S
O1084      C1094   1.276       .  A
O1085     Cu1090   2.002   1_545  S
O1085      C1094   1.278       .  A
O1086     Cu1090   1.996   1_455  S
O1086      C1093   1.275       .  A
O1087     Cu1090   1.973       .  S
O1087      C1092   1.275       .  A
O1088     Cu1090   1.974   1_455  S
O1088      C1091   1.271       .  A
Cu1089    Cu1090   2.366       .  S
C1091      C1925   1.495       .  S
C1092      C1826   1.496       .  S
C1093      C2421   1.471       .  S
C1094      C1877   1.478       .  S
O1095     Cu1103   2.048   1_545  S
O1095      C1105   1.283       .  A
O1096     Cu1103   2.044       .  S
O1096      C1106   1.283       .  A
O1097     Cu1103   2.045   1_556  S
O1097      C1107   1.282       .  A
O1098     Cu1103   2.046       .  S
O1098      C1108   1.281       .  A
O1099     Cu1104   1.972       .  S
O1099      C1108   1.275       .  A
O1100     Cu1104   1.973   1_556  S
O1100      C1107   1.270       .  A
O1101     Cu1104   1.976       .  S
O1101      C1106   1.270       .  A
O1102     Cu1104   1.972   1_545  S
O1102      C1105   1.270       .  A
Cu1103    Cu1104   2.353       .  S
C1105      C1973   1.497       .  S
C1106      C2482   1.498       .  S
C1107      C2725   1.495       .  S
C1108      C1909   1.502       .  S
O1109     Cu1117   1.972   1_455  S
O1109      C1119   1.275       .  A
O1110     Cu1117   1.966       .  S
O1110      C1120   1.269       .  A
O1111     Cu1117   2.006   1_556  S
O1111      C1121   1.277       .  A
O1112     Cu1117   2.000   1_455  S
O1112      C1122   1.276   1_455  A
O1113     Cu1118   2.012       .  S
O1113      C1122   1.276       .  A
O1114     Cu1118   2.015   1_556  S
O1114      C1121   1.277       .  A
O1115     Cu1118   2.057       .  S
O1115      C1120   1.284       .  A
O1116     Cu1118   2.057   1_455  S
O1116      C1119   1.283       .  A
Cu1117    Cu1118   2.364       .  S
C1119      C1986   1.505       .  S
C1120      C1813   1.502       .  S
C1121      C2805   1.477       .  S
C1122      C1858   1.468   1_655  S
N1123      N1124   1.322       .  A
N1123      C1127   1.347       .  A
N1123     Cu1131   2.075       .  S
N1124      C1125   1.343       .  A
N1124     Cu1130   2.074       .  S
C1125      C1126   1.383       .  A
C1125      H1128   1.082       .  S
C1126      C1127   1.385       .  A
C1126      C1778   1.480       .  S
C1127      H1129   1.081       .  S
Cu1130     N1133   2.073       .  S
Cu1131     N1141   2.075       .  S
Cu1132     N1134   2.076       .  S
Cu1132     N1140   2.078       .  S
N1133      N1134   1.320       .  A
N1133      C1137   1.342       .  A
N1134      C1135   1.348       .  A
C1135      C1136   1.389       .  A
C1135      H1138   1.082       .  S
C1136      C1137   1.387       .  A
C1136      C1762   1.491       .  S
C1137      H1139   1.078       .  S
N1140      N1141   1.321       .  A
N1140      C1144   1.343       .  A
N1141      C1142   1.344       .  A
C1142      C1143   1.389       .  A
C1142      H1145   1.076       .  S
C1143      C1144   1.389       .  A
C1143      C1794   1.494       .  S
C1144      H1146   1.082       .  S
N1147      N1148   1.319       .  A
N1147      C1151   1.348       .  A
N1147     Cu1155   2.074       .  S
N1148      C1149   1.342       .  A
N1148     Cu1154   2.079       .  S
C1149      C1150   1.392       .  A
C1149      H1152   1.082       .  S
C1150      C1151   1.392       .  A
C1150      C1746   1.499       .  S
C1151      H1153   1.077       .  S
Cu1154     N1157   2.079       .  S
Cu1155     N1165   2.075       .  S
Cu1156     N1158   2.076       .  S
Cu1156     N1164   2.076       .  S
N1157      N1158   1.321       .  A
N1157      C1161   1.343       .  A
N1158      C1159   1.347       .  A
C1159      C1160   1.387       .  A
C1159      H1162   1.082       .  S
C1160      C1161   1.387       .  A
C1160      C1730   1.489       .  S
C1161      H1163   1.078       .  S
N1164      N1165   1.321       .  A
N1164      C1168   1.345       .  A
N1165      C1166   1.343       .  A
C1166      C1167   1.389       .  A
C1166      H1169   1.082       .  S
C1167      C1168   1.389       .  A
C1167      C1797   1.494       .  S
C1168      H1170   1.076       .  S
O1171     Cu1179   2.018       .  S
O1171      C1181   1.278       .  A
O1172     Cu1179   2.019       .  S
O1172      C1182   1.278       .  A
O1173     Cu1179   2.042       .  S
O1173      C1183   1.281       .  A
O1174     Cu1179   2.043   1_455  S
O1174      C1184   1.281       .  A
O1175     Cu1180   1.977   1_455  S
O1175      C1184   1.276       .  A
O1176     Cu1180   1.978       .  S
O1176      C1183   1.276       .  A
O1177     Cu1180   2.001       .  S
O1177      C1182   1.276       .  A
O1178     Cu1180   2.001       .  S
O1178      C1181   1.276       .  A
Cu1179    Cu1180   2.368       .  S
C1181      C2389   1.471       .  S
C1182      C1842   1.472       .  S
C1183      C1714   1.501       .  S
C1184      C1765   1.498       .  S
O1185     Cu1193   2.035   1_556  S
O1185      C1195   1.280       .  A
O1186     Cu1193   2.039       .  S
O1186      C1196   1.280       .  A
O1187     Cu1193   2.040       .  S
O1187      C1197   1.282       .  A
O1188     Cu1193   2.036       .  S
O1188      C1198   1.281       .  A
O1189     Cu1194   1.978       .  S
O1189      C1198   1.272       .  A
O1190     Cu1194   1.975       .  S
O1190      C1197   1.270       .  A
O1191     Cu1194   1.981       .  S
O1191      C1196   1.276       .  A
O1192     Cu1194   1.985   1_556  S
O1192      C1195   1.276       .  A
Cu1193    Cu1194   2.359       .  S
C1195      C2613   1.497       .  S
C1196      C1733   1.500       .  S
C1197      C2453   1.497       .  S
C1198      C1954   1.483       .  S
O1199     Cu1207   2.022       .  S
O1199      C1209   1.278       .  A
O1200     Cu1207   2.018       .  S
O1200      C1210   1.279       .  A
O1201     Cu1207   2.033       .  S
O1201      C1211   1.279       .  A
O1202     Cu1207   2.033       .  S
O1202      C1212   1.282       .  A
O1203     Cu1208   1.985       .  S
O1203      C1212   1.272       .  A
O1204     Cu1208   1.983       .  S
O1204      C1211   1.276       .  A
O1205     Cu1208   2.000       .  S
O1205      C1210   1.275       .  A
O1206     Cu1208   1.996       .  S
O1206      C1209   1.277       .  A
Cu1207    Cu1208   2.362       .  S
C1209      C2661   1.486       .  S
C1210      C1781   1.487       .  S
C1211      C2341   1.496       .  S
C1212      C2117   1.499       .  S
O1213     Cu1221   1.983       .  S
O1213      C1223   1.272       .  A
O1214     Cu1221   1.982       .  S
O1214      C1224   1.276       .  A
O1215     Cu1221   1.995       .  S
O1215      C1225   1.275       .  A
O1216     Cu1221   1.994       .  S
O1216      C1226   1.275       .  A
O1217     Cu1222   2.014       .  S
O1217      C1226   1.277       .  A
O1218     Cu1222   2.014       .  S
O1218      C1225   1.278       .  A
O1219     Cu1222   2.032       .  S
O1219      C1224   1.280       .  A
O1220     Cu1222   2.037       .  S
O1220      C1223   1.283       .  A
Cu1221    Cu1222   2.367       .  S
C1223      C2082   1.502       .  S
C1224      C1698   1.486       .  S
C1225      C2901   1.475       .  S
C1226      C2261   1.468       .  S
O1227     Cu1235   2.041       .  S
O1227      C1237   1.283       .  A
O1228     Cu1235   2.037       .  S
O1228      C1238   1.280       .  A
O1229     Cu1235   2.017       .  S
O1229      C1239   1.277       .  A
O1230     Cu1235   2.020       .  S
O1230      C1240   1.280       .  A
O1231     Cu1236   1.995       .  S
O1231      C1240   1.274       .  A
O1232     Cu1236   1.991       .  S
O1232      C1239   1.275       .  A
O1233     Cu1236   1.983       .  S
O1233      C1238   1.276       .  A
O1234     Cu1236   1.981       .  S
O1234      C1237   1.272       .  A
Cu1235    Cu1236   2.363       .  S
C1237      C1749   1.497       .  S
C1238      C1682   1.496       .  S
C1239      C2581   1.467       .  S
C1240      C2229   1.497       .  S
N1241      N1242   1.320       .  A
N1241      C1245   1.346       .  A
N1241     Cu1249   2.060       .  S
N1242      C1243   1.343       .  A
N1242     Cu1248   2.073       .  S
C1243      C1244   1.383       .  A
C1243      H1246   1.082       .  S
C1244      C1245   1.381       .  A
C1244      C1653   1.474       .  S
C1245      H1247   1.082       .  S
Cu1248     N1251   2.073       .  S
Cu1249     N1259   2.062       .  S
Cu1250     N1252   2.078       .  S
Cu1250     N1258   2.078       .  S
N1251      N1252   1.322       .  A
N1251      C1255   1.342       .  A
N1252      C1253   1.347       .  A
C1253      C1254   1.387       .  A
C1253      H1256   1.082       .  S
C1254      C1255   1.385       .  A
C1254      C1685   1.486       .  S
C1255      H1257   1.078       .  S
N1258      N1259   1.321       .  A
N1258      C1262   1.345       .  A
N1259      C1260   1.340       .  A
C1260      C1261   1.385       .  A
C1260      H1263   1.082       .  S
C1261      C1262   1.390       .  A
C1261      C1669   1.489       .  S
C1262      H1264   1.076       .  S
N1265      N1266   1.318       .  A
N1265      C1269   1.346       .  A
N1265     Cu1273   2.060       .  S
N1266      C1267   1.342       .  A
N1266     Cu1272   2.084       .  S
C1267      C1268   1.393       .  A
C1267      H1270   1.082       .  S
C1268      C1269   1.389       .  A
C1268      C1634   1.496       .  S
C1269      H1271   1.077       .  S
Cu1272     N1275   2.085       .  S
Cu1273     N1283   2.061       .  S
Cu1274     N1276   2.074       .  S
Cu1274     N1282   2.074       .  S
N1275      N1276   1.322       .  A
N1275      C1279   1.344       .  A
N1276      C1277   1.346       .  A
C1277      C1278   1.386       .  A
C1277      H1280   1.082       .  S
C1278      C1279   1.388       .  A
C1278      C1717   1.490       .  S
C1279      H1281   1.078       .  S
N1282      N1283   1.320       .  A
N1282      C1286   1.345       .  A
N1283      C1284   1.340       .  A
C1284      C1285   1.386       .  A
C1284      H1287   1.082       .  S
C1285      C1286   1.391       .  A
C1285      C1666   1.492       .  S
C1286      H1288   1.076       .  S
O1289     Cu1297   2.028   1_556  S
O1289      C1299   1.281       .  A
O1290     Cu1297   2.019       .  S
O1290      C1300   1.278       .  A
O1291     Cu1297   2.049       .  S
O1291      C1301   1.284       .  A
O1292     Cu1297   2.047       .  S
O1292      C1302   1.281       .  A
O1293     Cu1298   1.967       .  S
O1293      C1302   1.274       .  A
O1294     Cu1298   1.966       .  S
O1294      C1301   1.269       .  A
O1295     Cu1298   1.988       .  S
O1295      C1300   1.275       .  A
O1296     Cu1298   1.982   1_556  S
O1296      C1299   1.272       .  A
Cu1297    Cu1298   2.359       .  S
C1299      C3173   1.499       .  S
C1300      C1650   1.467       .  S
C1301      C1618   1.498       .  S
C1302      C3093   1.499       .  S
N1303      N1304   1.316       .  A
N1303      C1307   1.348       .  A
N1303     Cu1311   2.079       .  S
N1304      C1305   1.338       .  A
N1304     Cu1310   2.055       .  S
C1305      C1306   1.388       .  A
C1305      H1308   1.074   1_554  S
C1306      C1307   1.396       .  A
C1306      C1589   1.499       .  S
C1307      H1309   1.082       .  S
Cu1310     N1313   2.056       .  S
Cu1311     N1321   2.082       .  S
Cu1312     N1314   2.077   1_556  S
Cu1312     N1320   2.081   1_556  S
N1313      N1314   1.315       .  A
N1313      C1317   1.334       .  A
N1314      C1315   1.351   1_554  A
C1315      C1316   1.400   1_556  A
C1315      H1318   1.076       .  S
C1316      C1317   1.394       .  A
C1316      C1810   1.509       .  S
C1317      H1319   1.081       .  S
N1320      N1321   1.323       .  A
N1320      C1324   1.341       .  A
N1321      C1322   1.344       .  A
C1322      C1323   1.390       .  A
C1322      H1325   1.074       .  S
C1323      C1324   1.391       .  A
C1323      C1602   1.499       .  S
C1324      H1326   1.081   1_554  S
N1327      N1328   1.318       .  A
N1327      C1331   1.349       .  A
N1327     Cu1335   2.071       .  S
N1328      C1329   1.338       .  A
N1328     Cu1334   2.068       .  S
C1329      C1330   1.390       .  A
C1329      H1332   1.082       .  S
C1330      C1331   1.393       .  A
C1330      C1621   1.498       .  S
C1331      H1333   1.077       .  S
Cu1334     N1337   2.068       .  S
Cu1335     N1345   2.073       .  S
Cu1336     N1338   2.077       .  S
Cu1336     N1344   2.078       .  S
N1337      N1338   1.319       .  A
N1337      C1341   1.341       .  A
N1338      C1339   1.349   1_554  A
C1339      C1340   1.389   1_556  A
C1339      H1342   1.082       .  S
C1340      C1341   1.386       .  A
C1340      C2149   1.489       .  S
C1341      H1343   1.079       .  S
N1344      N1345   1.322       .  A
N1344      C1348   1.343       .  A
N1345      C1346   1.342       .  A
C1346      C1347   1.387       .  A
C1346      H1349   1.076       .  S
C1347      C1348   1.389       .  A
C1347      C1605   1.493       .  S
C1348      H1350   1.082   1_554  S
N1351      N1352   1.321       .  A
N1351      C1355   1.345       .  A
N1351     Cu1359   2.062       .  S
N1352      C1353   1.345       .  A
N1352     Cu1358   2.076       .  S
C1353      C1354   1.383       .  A
C1353      H1356   1.082       .  S
C1354      C1355   1.380       .  A
C1354      C1554   1.473       .  S
C1355      H1357   1.082       .  S
Cu1358     N1361   2.077       .  S
Cu1359     N1369   2.063       .  S
Cu1360     N1362   2.077   1_545  S
Cu1360     N1368   2.077       .  S
N1361      N1362   1.322       .  A
N1361      C1365   1.342       .  A
N1362      C1363   1.347   1_565  A
C1363      C1364   1.388   1_545  A
C1363      H1366   1.082       .  S
C1364      C1365   1.387       .  A
C1364      C1829   1.490       .  S
C1365      H1367   1.077       .  S
N1368      N1369   1.320   1_545  A
N1368      C1372   1.346       .  A
N1369      C1370   1.339       .  A
C1370      C1371   1.386       .  A
C1370      H1373   1.082       .  S
C1371      C1372   1.391   1_565  A
C1371      C1570   1.491       .  S
C1372      H1374   1.077       .  S
N1375      N1376   1.322       .  A
N1375      C1379   1.348       .  A
N1375     Cu1383   2.076   1_565  S
N1376      C1377   1.343       .  A
N1376     Cu1382   2.082       .  S
C1377      C1378   1.386       .  A
C1377      H1380   1.079       .  S
C1378      C1379   1.386       .  A
C1378      C1541   1.486       .  S
C1379      H1381   1.082   1_565  S
Cu1382     N1385   2.081       .  S
Cu1383     N1393   2.076       .  S
Cu1384     N1386   2.070       .  S
Cu1384     N1392   2.071       .  S
N1385      N1386   1.317       .  A
N1385      C1389   1.343       .  A
N1386      C1387   1.347       .  A
C1387      C1388   1.393       .  A
C1387      H1390   1.082       .  S
C1388      C1389   1.395       .  A
C1388      C2181   1.504       .  S
C1389      H1391   1.062       .  S
N1392      N1393   1.320   1_565  A
N1392      C1396   1.342       .  A
N1393      C1394   1.343       .  A
C1394      C1395   1.391   1_545  A
C1394      H1397   1.082       .  S
C1395      C1396   1.389       .  A
C1395      C1573   1.497       .  S
C1396      H1398   1.075       .  S
O1399     Cu1407   2.035       .  S
O1399      C1409   1.280       .  A
O1400     Cu1407   2.029   1_545  S
O1400      C1410   1.278       .  A
O1401     Cu1407   2.027   1_556  S
O1401      C1411   1.281       .  A
O1402     Cu1407   2.031       .  S
O1402      C1412   1.279       .  A
O1403     Cu1408   1.994       .  S
O1403      C1412   1.275       .  A
O1404     Cu1408   1.992   1_556  S
O1404      C1411   1.274       .  A
O1405     Cu1408   1.985   1_545  S
O1405      C1410   1.277       .  A
O1406     Cu1408   1.986       .  S
O1406      C1409   1.274       .  A
Cu1407    Cu1408   2.367       .  S
C1409      C3141   1.472       .  S
C1410      C1586   1.501       .  S
C1411      C3045   1.495       .  S
C1412      C1557   1.473       .  S
N1413      N1414   1.322       .  A
N1413      C1417   1.350       .  A
N1413     Cu1421   2.087       .  S
N1414      C1415   1.340       .  A
N1414     Cu1420   2.078       .  S
C1415      C1416   1.387       .  A
C1415      H1418   1.076       .  S
C1416      C1417   1.391       .  A
C1416      C1509   1.496       .  S
C1417      H1419   1.082       .  S
Cu1420     N1423   2.079       .  S
Cu1421     N1431   2.088       .  S
Cu1422     N1424   2.053       .  S
Cu1422     N1430   2.054       .  S
N1423      N1424   1.319       .  A
N1423      C1427   1.345       .  A
N1424      C1425   1.344       .  A
C1425      C1426   1.382       .  A
C1425      H1428   1.082       .  S
C1426      C1427   1.388       .  A
C1426      C1701   1.480       .  S
C1427      H1429   1.080       .  S
N1430      N1431   1.321       .  A
N1430      C1434   1.341       .  A
N1431      C1432   1.345       .  A
C1432      C1433   1.392       .  A
C1432      H1435   1.082       .  S
C1433      C1434   1.383       .  A
C1433      C1522   1.489       .  S
C1434      H1436   1.077       .  S
N1437      N1438   1.322       .  A
N1437      C1441   1.348       .  A
N1437     Cu1445   2.091       .  S
N1438      C1439   1.342       .  A
N1438     Cu1444   2.076       .  S
C1439      C1440   1.387       .  A
C1439      H1442   1.076       .  S
C1440      C1441   1.393       .  A
C1440      C1490   1.498       .  S
C1441      H1443   1.082       .  S
Cu1444     N1447   2.076       .  S
Cu1445     N1455   2.090       .  S
Cu1446     N1448   2.049       .  S
Cu1446     N1454   2.051       .  S
N1447      N1448   1.317       .  A
N1447      C1451   1.342       .  A
N1448      C1449   1.344       .  A
C1449      C1450   1.386       .  A
C1449      H1452   1.077       .  S
C1450      C1451   1.391       .  A
C1450      C2037   1.489       .  S
C1451      H1453   1.082       .  S
N1454      N1455   1.320       .  A
N1454      C1458   1.339       .  A
N1455      C1456   1.347       .  A
C1456      C1457   1.394       .  A
C1456      H1459   1.082       .  S
C1457      C1458   1.383       .  A
C1457      C1525   1.491       .  S
C1458      H1460   1.076       .  S
O1461     Cu1469   1.968       .  S
O1461      C1471   1.268       .  A
O1462     Cu1469   1.964   1_545  S
O1462      C1472   1.274       .  A
O1463     Cu1469   1.981       .  S
O1463      C1473   1.276       .  A
O1464     Cu1469   1.982       .  S
O1464      C1474   1.271       .  A
O1465     Cu1470   2.041       .  S
O1465      C1474   1.282       .  A
O1466     Cu1470   2.041       .  S
O1466      C1473   1.280       .  A
O1467     Cu1470   2.056   1_545  S
O1467      C1472   1.282       .  A
O1468     Cu1470   2.054       .  S
O1468      C1471   1.284       .  A
Cu1469    Cu1470   2.352       .  S
C1471      C3250   1.503       .  S
C1472      C1506   1.504       .  S
C1473      C1538   1.498       .  S
C1474      C3013   1.500       .  S
O1475     Cu1483   1.969       .  S
O1475      C1485   1.269       .  A
O1476     Cu1483   1.968       .  S
O1476      C1486   1.269       .  A
O1477     Cu1483   1.993       .  S
O1477      C1487   1.275       .  A
O1478     Cu1483   2.004       .  S
O1478      C1488   1.279       .  A
O1479     Cu1484   2.017       .  S
O1479      C1488   1.276       .  A
O1480     Cu1484   2.020       .  S
O1480      C1487   1.278       .  A
O1481     Cu1484   2.050       .  S
O1481      C1486   1.284       .  A
O1482     Cu1484   2.047       .  S
O1482      C1485   1.283       .  A
Cu1483    Cu1484   2.360       .  S
C1485      C3205   1.496       .  S
C1486      C1637   1.497       .  S
C1487      C3285   1.468       .  S
C1488      C1493   1.502       .  S
C1489      C1490   1.407       .  A
C1489      C1494   1.413       .  A
C1489      H1496   1.082       .  S
C1490      C1491   1.423       .  A
C1491      C1492   1.404       .  A
C1491      C1498   1.521       .  S
C1492      C1493   1.407       .  A
C1492      H1497   1.082       .  S
C1493      C1494   1.426       .  A
C1494      C1495   1.521       .  S
C1495      F1499   1.385       .  S
C1495      F1500   1.383       .  S
C1495      F1501   1.384       .  S
C1498      F1502   1.382       .  S
C1498      F1503   1.383       .  S
C1498      F1504   1.385       .  S
C1505      C1506   1.408       .  A
C1505      C1510   1.398       .  A
C1505      H1512   1.082       .  S
C1506      C1507   1.423       .  A
C1507      C1508   1.419       .  A
C1507      C1514   1.518       .  S
C1508      C1509   1.410       .  A
C1508      H1513   1.082       .  S
C1509      C1510   1.420       .  A
C1510      C1511   1.523       .  S
C1511      F1515   1.386       .  S
C1511      F1516   1.382       .  S
C1511      F1517   1.382       .  S
C1514      F1518   1.384       .  S
C1514      F1519   1.383       .  S
C1514      F1520   1.385       .  S
C1521      C1522   1.403       .  A
C1521      C1526   1.405       .  A
C1521      H1528   1.082       .  S
C1522      C1523   1.422       .  A
C1523      C1524   1.407       .  A
C1523      C1530   1.521       .  S
C1524      C1525   1.405       .  A
C1524      H1529   1.082       .  S
C1525      C1526   1.424       .  A
C1526      C1527   1.521       .  S
C1527      F1531   1.385       .  S
C1527      F1532   1.383       .  S
C1527      F1533   1.382       .  S
C1530      F1534   1.382       .  S
C1530      F1535   1.383       .  S
C1530      F1536   1.385       .  S
C1537      C1538   1.408   1_545  A
C1537      C1542   1.401       .  A
C1537      H1544   1.083       .  S
C1538      C1539   1.424       .  A
C1539      C1540   1.416       .  A
C1539      C1546   1.518       .  S
C1540      C1541   1.406       .  A
C1540      H1545   1.083       .  S
C1541      C1542   1.416   1_565  A
C1542      C1543   1.521       .  S
C1543      F1547   1.385       .  S
C1543      F1548   1.381   1_545  S
C1543      F1549   1.383       .  S
C1546      F1550   1.383       .  S
C1546      F1551   1.383   1_565  S
C1546      F1552   1.385       .  S
C1553      C1554   1.403   1_545  A
C1553      C1558   1.409       .  A
C1553      H1560   1.083       .  S
C1554      C1555   1.413       .  A
C1555      C1556   1.404       .  A
C1555      C1562   1.517       .  S
C1556      C1557   1.399       .  A
C1556      H1561   1.076       .  S
C1557      C1558   1.414   1_565  A
C1558      C1559   1.517       .  S
C1559      F1563   1.384       .  S
C1559      F1564   1.383       .  S
C1559      F1565   1.382       .  S
C1562      F1566   1.383       .  S
C1562      F1567   1.383       .  S
C1562      F1568   1.384       .  S
C1569      C1570   1.404   1_545  A
C1569      C1574   1.405       .  A
C1569      H1576   1.082       .  S
C1570      C1571   1.420       .  A
C1571      C1572   1.408       .  A
C1571      C1578   1.520       .  S
C1572      C1573   1.409       .  A
C1572      H1577   1.082       .  S
C1573      C1574   1.424   1_565  A
C1574      C1575   1.521       .  S
C1575      F1579   1.385       .  S
C1575      F1580   1.382       .  S
C1575      F1581   1.382   1_545  S
C1578      F1582   1.381   1_565  S
C1578      F1583   1.383       .  S
C1578      F1584   1.385       .  S
C1585      C1586   1.406       .  A
C1585      C1590   1.402       .  A
C1585      H1592   1.081       .  S
C1586      C1587   1.423       .  A
C1587      C1588   1.414       .  A
C1587      C1594   1.520       .  S
C1588      C1589   1.410       .  A
C1588      H1593   1.081       .  S
C1589      C1590   1.425       .  A
C1590      C1591   1.523       .  S
C1591      F1595   1.385       .  S
C1591      F1596   1.382       .  S
C1591      F1597   1.382       .  S
C1594      F1598   1.383       .  S
C1594      F1599   1.383   1_554  S
C1594      F1600   1.385       .  S
C1601      C1602   1.408       .  A
C1601      C1606   1.404       .  A
C1601      H1608   1.081       .  S
C1602      C1603   1.425       .  A
C1603      C1604   1.408       .  A
C1603      C1610   1.520       .  S
C1604      C1605   1.406       .  A
C1604      H1609   1.082       .  S
C1605      C1606   1.420       .  A
C1606      C1607   1.521       .  S
C1607      F1611   1.385   1_554  S
C1607      F1612   1.382       .  S
C1607      F1613   1.383   1_554  S
C1610      F1614   1.382       .  S
C1610      F1615   1.383   1_554  S
C1610      F1616   1.385       .  S
C1617      C1618   1.408       .  A
C1617      C1622   1.415       .  A
C1617      H1624   1.082       .  S
C1618      C1619   1.429       .  A
C1619      C1620   1.401       .  A
C1619      C1626   1.527       .  S
C1620      C1621   1.401       .  A
C1620      H1625   1.081       .  S
C1621      C1622   1.423       .  A
C1622      C1623   1.518   1_554  S
C1623      F1627   1.385       .  S
C1623      F1628   1.383       .  S
C1623      F1629   1.381   1_556  S
C1626      F1630   1.384       .  S
C1626      F1631   1.384       .  S
C1626      F1632   1.385       .  S
C1633      C1634   1.401       .  A
C1633      C1638   1.402       .  A
C1633      H1640   1.082       .  S
C1634      C1635   1.423       .  A
C1635      C1636   1.414       .  A
C1635      C1642   1.519       .  S
C1636      C1637   1.407       .  A
C1636      H1641   1.082       .  S
C1637      C1638   1.428       .  A
C1638      C1639   1.526       .  S
C1639      F1643   1.385       .  S
C1639      F1644   1.384       .  S
C1639      F1645   1.384       .  S
C1642      F1646   1.381       .  S
C1642      F1647   1.383       .  S
C1642      F1648   1.385       .  S
C1649      C1650   1.400       .  A
C1649      C1654   1.402       .  A
C1649      H1656   1.084       .  S
C1650      C1651   1.413       .  A
C1651      C1652   1.409       .  A
C1651      C1658   1.517       .  S
C1652      C1653   1.405       .  A
C1652      H1657   1.083       .  S
C1653      C1654   1.415       .  A
C1654      C1655   1.518       .  S
C1655      F1659   1.385       .  S
C1655      F1660   1.381       .  S
C1655      F1661   1.384       .  S
C1658      F1662   1.383       .  S
C1658      F1663   1.383       .  S
C1658      F1664   1.384       .  S
C1665      C1666   1.406       .  A
C1665      C1670   1.406       .  A
C1665      H1672   1.082       .  S
C1666      C1667   1.422       .  A
C1667      C1668   1.406       .  A
C1667      C1674   1.520       .  S
C1668      C1669   1.405       .  A
C1668      H1673   1.083       .  S
C1669      C1670   1.420       .  A
C1670      C1671   1.520       .  S
C1671      F1675   1.385       .  S
C1671      F1676   1.383       .  S
C1671      F1677   1.381       .  S
C1674      F1678   1.382       .  S
C1674      F1679   1.383       .  S
C1674      F1680   1.385       .  S
C1681      C1682   1.408       .  A
C1681      C1686   1.401       .  A
C1681      H1688   1.083       .  S
C1682      C1683   1.423       .  A
C1683      C1684   1.414       .  A
C1683      C1690   1.518       .  S
C1684      C1685   1.406       .  A
C1684      H1689   1.083       .  S
C1685      C1686   1.417       .  A
C1686      C1687   1.522       .  S
C1687      F1691   1.385       .  S
C1687      F1692   1.381       .  S
C1687      F1693   1.383       .  S
C1690      F1694   1.383       .  S
C1690      F1695   1.383       .  S
C1690      F1696   1.385       .  S
C1697      C1698   1.406       .  A
C1697      C1702   1.402       .  A
C1697      H1704   1.083       .  S
C1698      C1699   1.420       .  A
C1699      C1700   1.411       .  A
C1699      C1706   1.518       .  S
C1700      C1701   1.405       .  A
C1700      H1705   1.083       .  S
C1701      C1702   1.416       .  A
C1702      C1703   1.520       .  S
C1703      F1707   1.385       .  S
C1703      F1708   1.380       .  S
C1703      F1709   1.384       .  S
C1706      F1710   1.382       .  S
C1706      F1711   1.383       .  S
C1706      F1712   1.385       .  S
C1713      C1714   1.409       .  A
C1713      C1718   1.402       .  A
C1713      H1720   1.082       .  S
C1714      C1715   1.423       .  A
C1715      C1716   1.415       .  A
C1715      C1722   1.519       .  S
C1716      C1717   1.407       .  A
C1716      H1721   1.083       .  S
C1717      C1718   1.418       .  A
C1718      C1719   1.522       .  S
C1719      F1723   1.385       .  S
C1719      F1724   1.383       .  S
C1719      F1725   1.381       .  S
C1722      F1726   1.384       .  S
C1722      F1727   1.383       .  S
C1722      F1728   1.385       .  S
C1729      C1730   1.407       .  A
C1729      C1734   1.415       .  A
C1729      H1736   1.083       .  S
C1730      C1731   1.418       .  A
C1731      C1732   1.401       .  A
C1731      C1738   1.522       .  S
C1732      C1733   1.409       .  A
C1732      H1737   1.082       .  S
C1733      C1734   1.424       .  A
C1734      C1735   1.519       .  S
C1735      F1739   1.385       .  S
C1735      F1740   1.383       .  S
C1735      F1741   1.383       .  S
C1738      F1742   1.383       .  S
C1738      F1743   1.381       .  S
C1738      F1744   1.385       .  S
C1745      C1746   1.404       .  A
C1745      C1750   1.404       .  A
C1745      H1752   1.082       .  S
C1746      C1747   1.423       .  A
C1747      C1748   1.414       .  A
C1747      C1754   1.518       .  S
C1748      C1749   1.407       .  A
C1748      H1753   1.082       .  S
C1749      C1750   1.426       .  A
C1750      C1751   1.524       .  S
C1751      F1755   1.385       .  S
C1751      F1756   1.384       .  S
C1751      F1757   1.384       .  S
C1754      F1758   1.382       .  S
C1754      F1759   1.383       .  S
C1754      F1760   1.385       .  S
C1761      C1762   1.408       .  A
C1761      C1766   1.415       .  A
C1761      H1768   1.083       .  S
C1762      C1763   1.420       .  A
C1763      C1764   1.401       .  A
C1763      C1770   1.522       .  S
C1764      C1765   1.407       .  A
C1764      H1769   1.083       .  S
C1765      C1766   1.422       .  A
C1766      C1767   1.518       .  S
C1767      F1771   1.385       .  S
C1767      F1772   1.383       .  S
C1767      F1773   1.383       .  S
C1770      F1774   1.383       .  S
C1770      F1775   1.382       .  S
C1770      F1776   1.385       .  S
C1777      C1778   1.401       .  A
C1777      C1782   1.406       .  A
C1777      H1784   1.083       .  S
C1778      C1779   1.416       .  A
C1779      C1780   1.409       .  A
C1779      C1786   1.518       .  S
C1780      C1781   1.406       .  A
C1780      H1785   1.083       .  S
C1781      C1782   1.422       .  A
C1782      C1783   1.521       .  S
C1783      F1787   1.385       .  S
C1783      F1788   1.384       .  S
C1783      F1789   1.383       .  S
C1786      F1790   1.381       .  S
C1786      F1791   1.383       .  S
C1786      F1792   1.385       .  S
C1793      C1794   1.406       .  A
C1793      C1798   1.408       .  A
C1793      H1800   1.082       .  S
C1794      C1795   1.423       .  A
C1795      C1796   1.407       .  A
C1795      C1802   1.520       .  S
C1796      C1797   1.405       .  A
C1796      H1801   1.082       .  S
C1797      C1798   1.423       .  A
C1798      C1799   1.520       .  S
C1799      F1803   1.385       .  S
C1799      F1804   1.381       .  S
C1799      F1805   1.383       .  S
C1802      F1806   1.383       .  S
C1802      F1807   1.382       .  S
C1802      F1808   1.385       .  S
C1809      C1810   1.404       .  A
C1809      C1814   1.398       .  A
C1809      H1816   1.078   1_554  S
C1810      C1811   1.427       .  A
C1811      C1812   1.419       .  A
C1811      C1818   1.517       .  S
C1812      C1813   1.409       .  A
C1812      H1817   1.082       .  S
C1813      C1814   1.427       .  A
C1814      C1815   1.528       .  S
C1815      F1819   1.385       .  S
C1815      F1820   1.384       .  S
C1815      F1821   1.379   1_554  S
C1818      F1822   1.383       .  S
C1818      F1823   1.382   1_554  S
C1818      F1824   1.385       .  S
C1825      C1826   1.407   1_545  A
C1825      C1830   1.400       .  A
C1825      H1832   1.083       .  S
C1826      C1827   1.421       .  A
C1827      C1828   1.414       .  A
C1827      C1834   1.518       .  S
C1828      C1829   1.409       .  A
C1828      H1833   1.083       .  S
C1829      C1830   1.419   1_565  A
C1830      C1831   1.522       .  S
C1831      F1835   1.385       .  S
C1831      F1836   1.383       .  S
C1831      F1837   1.382   1_545  S
C1834      F1838   1.383   1_565  S
C1834      F1839   1.383       .  S
C1834      F1840   1.385       .  S
C1841      C1842   1.401   1_455  A
C1841      C1846   1.406       .  A
C1841      H1848   1.084       .  S
C1842      C1843   1.415       .  A
C1843      C1844   1.409       .  A
C1843      C1850   1.517       .  S
C1844      C1845   1.403       .  A
C1844      H1849   1.083       .  S
C1845      C1846   1.415   1_655  A
C1846      C1847   1.517       .  S
C1847      F1851   1.385       .  S
C1847      F1852   1.383       .  S
C1847      F1853   1.382       .  S
C1850      F1854   1.383       .  S
C1850      F1855   1.383       .  S
C1850      F1856   1.384       .  S
C1857      C1858   1.400       .  A
C1857      C1862   1.405       .  A
C1857      H1864   1.084       .  S
C1858      C1859   1.414   1_455  A
C1859      C1860   1.407       .  A
C1859      C1866   1.518       .  S
C1860      C1861   1.402   1_655  A
C1860      H1865   1.083       .  S
C1861      C1862   1.415       .  A
C1862      C1863   1.517       .  S
C1863      F1867   1.385       .  S
C1863      F1868   1.382       .  S
C1863      F1869   1.383       .  S
C1866      F1870   1.383       .  S
C1866      F1871   1.383       .  S
C1866      F1872   1.384       .  S
C1873      C1874   1.404   1_455  A
C1873      C1878   1.410       .  A
C1873      H1880   1.083       .  S
C1874      C1875   1.417       .  A
C1875      C1876   1.403       .  A
C1875      C1882   1.520       .  S
C1876      C1877   1.402       .  A
C1876      H1881   1.084       .  S
C1877      C1878   1.418   1_655  A
C1878      C1879   1.518       .  S
C1879      F1883   1.385       .  S
C1879      F1884   1.383       .  S
C1879      F1885   1.383       .  S
C1882      F1886   1.380       .  S
C1882      F1887   1.384       .  S
C1882      F1888   1.385       .  S
C1889      C1890   1.401   1_455  A
C1889      C1894   1.406       .  A
C1889      H1896   1.083       .  S
C1890      C1891   1.414       .  A
C1891      C1892   1.406       .  A
C1891      C1898   1.517       .  S
C1892      C1893   1.401       .  A
C1892      H1897   1.083       .  S
C1893      C1894   1.415   1_655  A
C1894      C1895   1.517       .  S
C1895      F1899   1.385       .  S
C1895      F1900   1.382       .  S
C1895      F1901   1.383       .  S
C1898      F1902   1.383       .  S
C1898      F1903   1.382       .  S
C1898      F1904   1.384       .  S
C1905      C1906   1.410       .  A
C1905      C1910   1.416       .  A
C1905      H1912   1.082       .  S
C1906      C1907   1.420       .  A
C1907      C1908   1.401       .  A
C1907      C1914   1.523       .  S
C1908      C1909   1.409       .  A
C1908      H1913   1.081       .  S
C1909      C1910   1.423       .  A
C1910      C1911   1.519       .  S
C1911      F1915   1.385       .  S
C1911      F1916   1.383   1_565  S
C1911      F1917   1.383       .  S
C1914      F1918   1.383   1_565  S
C1914      F1919   1.382       .  S
C1914      F1920   1.385   1_565  S
C1921      C1922   1.401   1_545  A
C1921      C1926   1.403       .  A
C1921      H1928   1.082       .  S
C1922      C1923   1.422       .  A
C1923      C1924   1.413       .  A
C1923      C1930   1.518       .  S
C1924      C1925   1.407       .  A
C1924      H1929   1.082       .  S
C1925      C1926   1.427   1_565  A
C1926      C1927   1.524       .  S
C1927      F1931   1.385       .  S
C1927      F1932   1.384       .  S
C1927      F1933   1.383   1_545  S
C1930      F1934   1.381       .  S
C1930      F1935   1.383       .  S
C1930      F1936   1.385       .  S
C1937      C1938   1.407   1_545  A
C1937      C1942   1.404       .  A
C1937      H1944   1.082       .  S
C1938      C1939   1.423       .  A
C1939      C1940   1.407       .  A
C1939      C1946   1.520       .  S
C1940      C1941   1.403       .  A
C1940      H1945   1.083       .  S
C1941      C1942   1.418   1_565  A
C1942      C1943   1.521       .  S
C1943      F1947   1.385       .  S
C1943      F1948   1.383       .  S
C1943      F1949   1.381   1_545  S
C1946      F1950   1.382   1_565  S
C1946      F1951   1.383       .  S
C1946      F1952   1.385       .  S
C1953      C1954   1.406   1_556  A
C1953      C1958   1.411       .  A
C1953      H1960   1.083       .  S
C1954      C1955   1.422       .  A
C1955      C1956   1.402       .  A
C1955      C1962   1.521       .  S
C1956      C1957   1.398       .  A
C1956      H1961   1.084       .  S
C1957      C1958   1.417   1_554  A
C1958      C1959   1.518       .  S
C1959      F1963   1.385       .  S
C1959      F1964   1.382       .  S
C1959      F1965   1.383       .  S
C1962      F1966   1.384       .  S
C1962      F1967   1.383       .  S
C1962      F1968   1.385       .  S
C1969      C1970   1.399   1_556  A
C1969      C1974   1.402       .  A
C1969      H1976   1.083       .  S
C1970      C1971   1.420       .  A
C1971      C1972   1.414       .  A
C1971      C1978   1.518       .  S
C1972      C1973   1.409       .  A
C1972      H1977   1.082       .  S
C1973      C1974   1.429   1_554  A
C1974      C1975   1.525       .  S
C1975      F1979   1.385       .  S
C1975      F1980   1.384   1_556  S
C1975      F1981   1.384       .  S
C1978      F1982   1.383       .  S
C1978      F1983   1.381   1_554  S
C1978      F1984   1.385       .  S
C1985      C1986   1.408       .  A
C1985      C1990   1.404       .  A
C1985      H1992   1.082   1_554  S
C1986      C1987   1.421       .  A
C1987      C1988   1.417       .  A
C1987      C1994   1.518       .  S
C1988      C1989   1.412       .  A
C1988      H1993   1.082       .  S
C1989      C1990   1.424       .  A
C1990      C1991   1.523   1_554  S
C1991      F1995   1.385       .  S
C1991      F1996   1.382   1_556  S
C1991      F1997   1.382       .  S
C1994      F1998   1.383       .  S
C1994      F1999   1.384   1_554  S
C1994      F2000   1.385       .  S
C2001      C2002   1.404       .  A
C2001      C2006   1.407       .  A
C2001      H2008   1.083       .  S
C2002      C2003   1.423       .  A
C2003      C2004   1.407   1_554  A
C2003      C2010   1.521   1_554  S
C2004      C2005   1.403   1_556  A
C2004      H2009   1.083       .  S
C2005      C2006   1.423       .  A
C2006      C2007   1.520       .  S
C2007      F2011   1.385       .  S
C2007      F2012   1.381       .  S
C2007      F2013   1.383       .  S
C2010      F2014   1.383       .  S
C2010      F2015   1.381   1_556  S
C2010      F2016   1.385       .  S
C2017      C2018   1.401       .  A
C2017      C2022   1.401       .  A
C2017      H2024   1.081       .  S
C2018      C2019   1.424       .  A
C2019      C2020   1.416       .  A
C2019      C2026   1.518   1_565  S
C2020      C2021   1.408       .  A
C2020      H2025   1.083   1_565  S
C2021      C2022   1.428       .  A
C2022      C2023   1.526       .  S
C2023      F2027   1.385       .  S
C2023      F2028   1.384       .  S
C2023      F2029   1.384       .  S
C2026      F2030   1.381   1_545  S
C2026      F2031   1.383       .  S
C2026      F2032   1.385       .  S
C2033      C2034   1.406       .  A
C2033      C2038   1.411       .  A
C2033      H2040   1.082       .  S
C2034      C2035   1.425       .  A
C2035      C2036   1.402       .  A
C2035      C2042   1.524       .  S
C2036      C2037   1.401       .  A
C2036      H2041   1.083       .  S
C2037      C2038   1.421       .  A
C2038      C2039   1.519       .  S
C2039      F2043   1.385       .  S
C2039      F2044   1.383       .  S
C2039      F2045   1.382       .  S
C2042      F2046   1.383       .  S
C2042      F2047   1.384       .  S
C2042      F2048   1.385       .  S
C2049      C2050   1.402       .  A
C2049      C2054   1.408       .  A
C2049      H2056   1.083       .  S
C2050      C2051   1.414   1_655  A
C2051      C2052   1.406       .  A
C2051      C2058   1.519       .  S
C2052      C2053   1.402   1_455  A
C2052      H2057   1.083       .  S
C2053      C2054   1.416       .  A
C2054      C2055   1.518       .  S
C2055      F2059   1.385       .  S
C2055      F2060   1.382       .  S
C2055      F2061   1.383       .  S
C2058      F2062   1.384       .  S
C2058      F2063   1.382       .  S
C2058      F2064   1.384       .  S
C2065      C2066   1.410       .  A
C2065      C2070   1.414       .  A
C2065      H2072   1.082       .  S
C2066      C2067   1.421       .  A
C2067      C2068   1.402       .  A
C2067      C2074   1.522       .  S
C2068      C2069   1.408       .  A
C2068      H2073   1.082       .  S
C2069      C2070   1.422       .  A
C2070      C2071   1.519       .  S
C2071      F2075   1.385       .  S
C2071      F2076   1.383       .  S
C2071      F2077   1.384       .  S
C2074      F2078   1.382       .  S
C2074      F2079   1.383       .  S
C2074      F2080   1.385       .  S
C2081      C2082   1.409       .  A
C2081      C2086   1.413       .  A
C2081      H2088   1.082       .  S
C2082      C2083   1.428       .  A
C2083      C2084   1.404       .  A
C2083      C2090   1.526       .  S
C2084      C2085   1.403       .  A
C2084      H2089   1.081       .  S
C2085      C2086   1.422       .  A
C2086      C2087   1.519       .  S
C2087      F2091   1.385       .  S
C2087      F2092   1.383       .  S
C2087      F2093   1.381       .  S
C2090      F2094   1.384       .  S
C2090      F2095   1.384       .  S
C2090      F2096   1.385       .  S
C2097      C2098   1.408       .  A
C2097      C2102   1.400       .  A
C2097      H2104   1.082       .  S
C2098      C2099   1.422       .  A
C2099      C2100   1.414       .  A
C2099      C2106   1.519       .  S
C2100      C2101   1.408       .  A
C2100      H2105   1.082       .  S
C2101      C2102   1.419       .  A
C2102      C2103   1.522       .  S
C2103      F2107   1.385       .  S
C2103      F2108   1.383       .  S
C2103      F2109   1.382       .  S
C2106      F2110   1.384       .  S
C2106      F2111   1.382       .  S
C2106      F2112   1.385       .  S
C2113      C2114   1.401       .  A
C2113      C2118   1.405       .  A
C2113      H2120   1.082       .  S
C2114      C2115   1.420       .  A
C2115      C2116   1.411       .  A
C2115      C2122   1.519       .  S
C2116      C2117   1.409       .  A
C2116      H2121   1.082       .  S
C2117      C2118   1.428       .  A
C2118      C2119   1.524       .  S
C2119      F2123   1.385       .  S
C2119      F2124   1.384       .  S
C2119      F2125   1.384       .  S
C2122      F2126   1.381       .  S
C2122      F2127   1.383       .  S
C2122      F2128   1.385       .  S
C2129      C2130   1.404       .  A
C2129      C2134   1.407       .  A
C2129      H2136   1.083       .  S
C2130      C2131   1.419       .  A
C2131      C2132   1.405       .  A
C2131      C2138   1.520       .  S
C2132      C2133   1.402       .  A
C2132      H2137   1.083       .  S
C2133      C2134   1.419       .  A
C2134      C2135   1.520       .  S
C2135      F2139   1.385       .  S
C2135      F2140   1.383       .  S
C2135      F2141   1.381       .  S
C2138      F2142   1.381       .  S
C2138      F2143   1.383       .  S
C2138      F2144   1.385       .  S
C2145      C2146   1.406   1_556  A
C2145      C2150   1.398       .  A
C2145      H2152   1.083       .  S
C2146      C2147   1.421       .  A
C2147      C2148   1.416       .  A
C2147      C2154   1.517       .  S
C2148      C2149   1.409       .  A
C2148      H2153   1.083       .  S
C2149      C2150   1.418   1_554  A
C2150      C2151   1.521       .  S
C2151      F2155   1.385       .  S
C2151      F2156   1.383       .  S
C2151      F2157   1.382       .  S
C2154      F2158   1.383       .  S
C2154      F2159   1.383       .  S
C2154      F2160   1.385       .  S
C2161      C2162   1.408       .  A
C2161      C2166   1.404       .  A
C2161      H2168   1.082       .  S
C2162      C2163   1.422       .  A
C2163      C2164   1.415       .  A
C2163      C2170   1.519   1_554  S
C2164      C2165   1.410       .  A
C2164      H2169   1.082   1_554  S
C2165      C2166   1.423       .  A
C2166      C2167   1.522       .  S
C2167      F2171   1.385       .  S
C2167      F2172   1.383       .  S
C2167      F2173   1.382   1_554  S
C2170      F2174   1.384   1_556  S
C2170      F2175   1.383       .  S
C2170      F2176   1.385       .  S
C2177      C2178   1.409       .  A
C2177      C2182   1.402       .  A
C2177      H2184   1.081       .  S
C2178      C2179   1.420       .  A
C2179      C2180   1.417       .  A
C2179      C2186   1.518       .  S
C2180      C2181   1.414       .  A
C2180      H2185   1.081       .  S
C2181      C2182   1.424       .  A
C2182      C2183   1.523       .  S
C2183      F2187   1.386   1_565  S
C2183      F2188   1.382   1_565  S
C2183      F2189   1.382       .  S
C2186      F2190   1.384   1_565  S
C2186      F2191   1.383       .  S
C2186      F2192   1.385       .  S
C2193      C2194   1.406       .  A
C2193      C2198   1.415       .  A
C2193      H2200   1.083       .  S
C2194      C2195   1.428   1_565  A
C2195      C2196   1.402       .  A
C2195      C2202   1.527       .  S
C2196      C2197   1.402       .  A
C2196      H2201   1.081       .  S
C2197      C2198   1.425   1_545  A
C2198      C2199   1.518       .  S
C2199      F2203   1.385       .  S
C2199      F2204   1.381   1_565  S
C2199      F2205   1.383       .  S
C2202      F2206   1.382       .  S
C2202      F2207   1.384   1_545  S
C2202      F2208   1.385       .  S
C2209      C2210   1.401       .  A
C2209      C2214   1.405       .  A
C2209      H2216   1.083       .  S
C2210      C2211   1.415       .  A
C2211      C2212   1.407       .  A
C2211      C2218   1.517       .  S
C2212      C2213   1.401       .  A
C2212      H2217   1.084       .  S
C2213      C2214   1.413       .  A
C2214      C2215   1.517       .  S
C2215      F2219   1.384       .  S
C2215      F2220   1.383       .  S
C2215      F2221   1.383       .  S
C2218      F2222   1.383       .  S
C2218      F2223   1.383       .  S
C2218      F2224   1.385       .  S
C2225      C2226   1.405       .  A
C2225      C2230   1.405       .  A
C2225      H2232   1.081       .  S
C2226      C2227   1.423       .  A
C2227      C2228   1.411       .  A
C2227      C2234   1.520       .  S
C2228      C2229   1.408       .  A
C2228      H2233   1.082       .  S
C2229      C2230   1.425       .  A
C2230      C2231   1.524       .  S
C2231      F2235   1.385       .  S
C2231      F2236   1.384       .  S
C2231      F2237   1.384       .  S
C2234      F2238   1.382       .  S
C2234      F2239   1.383       .  S
C2234      F2240   1.385       .  S
C2241      C2242   1.402       .  A
C2241      C2246   1.408       .  A
C2241      H2248   1.083       .  S
C2242      C2243   1.415       .  A
C2243      C2244   1.404       .  A
C2243      C2250   1.518       .  S
C2244      C2245   1.400       .  A
C2244      H2249   1.084       .  S
C2245      C2246   1.416       .  A
C2246      C2247   1.518       .  S
C2247      F2251   1.385       .  S
C2247      F2252   1.381       .  S
C2247      F2253   1.382       .  S
C2250      F2254   1.381       .  S
C2250      F2255   1.384       .  S
C2250      F2256   1.385       .  S
C2257      C2258   1.402       .  A
C2257      C2262   1.407       .  A
C2257      H2264   1.083       .  S
C2258      C2259   1.415       .  A
C2259      C2260   1.404       .  A
C2259      C2266   1.518       .  S
C2260      C2261   1.400       .  A
C2260      H2265   1.084       .  S
C2261      C2262   1.414       .  A
C2262      C2263   1.517       .  S
C2263      F2267   1.384       .  S
C2263      F2268   1.383       .  S
C2263      F2269   1.383       .  S
C2266      F2270   1.381       .  S
C2266      F2271   1.383       .  S
C2266      F2272   1.385       .  S
C2273      C2274   1.401       .  A
C2273      C2278   1.405       .  A
C2273      H2280   1.083       .  S
C2274      C2275   1.413       .  A
C2275      C2276   1.405       .  A
C2275      C2282   1.517       .  S
C2276      C2277   1.401       .  A
C2276      H2281   1.083       .  S
C2277      C2278   1.413       .  A
C2278      C2279   1.517       .  S
C2279      F2283   1.384       .  S
C2279      F2284   1.382       .  S
C2279      F2285   1.383       .  S
C2282      F2286   1.383       .  S
C2282      F2287   1.383       .  S
C2282      F2288   1.384       .  S
C2289      C2290   1.406       .  A
C2289      C2294   1.402       .  A
C2289      H2296   1.083       .  S
C2290      C2291   1.422       .  A
C2291      C2292   1.414       .  A
C2291      C2298   1.519       .  S
C2292      C2293   1.408       .  A
C2292      H2297   1.082       .  S
C2293      C2294   1.422       .  A
C2294      C2295   1.522       .  S
C2295      F2299   1.385       .  S
C2295      F2300   1.382       .  S
C2295      F2301   1.383       .  S
C2298      F2302   1.383       .  S
C2298      F2303   1.383       .  S
C2298      F2304   1.385       .  S
C2305      C2306   1.404       .  A
C2305      C2310   1.400       .  A
C2305      H2312   1.080       .  S
C2306      C2307   1.424       .  A
C2307      C2308   1.417       .  A
C2307      C2314   1.518       .  S
C2308      C2309   1.409       .  A
C2308      H2313   1.082       .  S
C2309      C2310   1.425       .  A
C2310      C2311   1.526       .  S
C2311      F2315   1.385       .  S
C2311      F2316   1.383       .  S
C2311      F2317   1.384       .  S
C2314      F2318   1.382       .  S
C2314      F2319   1.383       .  S
C2314      F2320   1.385       .  S
C2321      C2322   1.403       .  A
C2321      C2326   1.400       .  A
C2321      H2328   1.081       .  S
C2322      C2323   1.421       .  A
C2323      C2324   1.414       .  A
C2323      C2330   1.518       .  S
C2324      C2325   1.409       .  A
C2324      H2329   1.082       .  S
C2325      C2326   1.426       .  A
C2326      C2327   1.527       .  S
C2327      F2331   1.385       .  S
C2327      F2332   1.384       .  S
C2327      F2333   1.383       .  S
C2330      F2334   1.383       .  S
C2330      F2335   1.382       .  S
C2330      F2336   1.385       .  S
C2337      C2338   1.409       .  A
C2337      C2342   1.414       .  A
C2337      H2344   1.082       .  S
C2338      C2339   1.423       .  A
C2339      C2340   1.401       .  A
C2339      C2346   1.523       .  S
C2340      C2341   1.405       .  A
C2340      H2345   1.083       .  S
C2341      C2342   1.421       .  A
C2342      C2343   1.519       .  S
C2343      F2347   1.385       .  S
C2343      F2348   1.383       .  S
C2343      F2349   1.383       .  S
C2346      F2350   1.382       .  S
C2346      F2351   1.382       .  S
C2346      F2352   1.385       .  S
C2353      C2354   1.405       .  A
C2353      C2358   1.408       .  A
C2353      H2360   1.083       .  S
C2354      C2355   1.420       .  A
C2355      C2356   1.404       .  A
C2355      C2362   1.521       .  S
C2356      C2357   1.404       .  A
C2356      H2361   1.083       .  S
C2357      C2358   1.421       .  A
C2358      C2359   1.519       .  S
C2359      F2363   1.385       .  S
C2359      F2364   1.383       .  S
C2359      F2365   1.381       .  S
C2362      F2366   1.381       .  S
C2362      F2367   1.383       .  S
C2362      F2368   1.385       .  S
C2369      C2370   1.401   1_455  A
C2369      C2374   1.406       .  A
C2369      H2376   1.084       .  S
C2370      C2371   1.415       .  A
C2371      C2372   1.408       .  A
C2371      C2378   1.517       .  S
C2372      C2373   1.403       .  A
C2372      H2377   1.083       .  S
C2373      C2374   1.415   1_655  A
C2374      C2375   1.518       .  S
C2375      F2379   1.385       .  S
C2375      F2380   1.384       .  S
C2375      F2381   1.381       .  S
C2378      F2382   1.383       .  S
C2378      F2383   1.382       .  S
C2378      F2384   1.384       .  S
C2385      C2386   1.402   1_455  A
C2385      C2390   1.408       .  A
C2385      H2392   1.083       .  S
C2386      C2387   1.414       .  A
C2387      C2388   1.406       .  A
C2387      C2394   1.517       .  S
C2388      C2389   1.401       .  A
C2388      H2393   1.084       .  S
C2389      C2390   1.414   1_655  A
C2390      C2391   1.517       .  S
C2391      F2395   1.384       .  S
C2391      F2396   1.383       .  S
C2391      F2397   1.383       .  S
C2394      F2398   1.383       .  S
C2394      F2399   1.382       .  S
C2394      F2400   1.385       .  S
C2401      C2402   1.402   1_455  A
C2401      C2406   1.407       .  A
C2401      H2408   1.083       .  S
C2402      C2403   1.414       .  A
C2403      C2404   1.405       .  A
C2403      C2410   1.517       .  S
C2404      C2405   1.401       .  A
C2404      H2409   1.084       .  S
C2405      C2406   1.414   1_655  A
C2406      C2407   1.516       .  S
C2407      F2411   1.384       .  S
C2407      F2412   1.381       .  S
C2407      F2413   1.383       .  S
C2410      F2414   1.382       .  S
C2410      F2415   1.384       .  S
C2410      F2416   1.385       .  S
C2417      C2418   1.402   1_455  A
C2417      C2422   1.405       .  A
C2417      H2424   1.083       .  S
C2418      C2419   1.416       .  A
C2419      C2420   1.408       .  A
C2419      C2426   1.517       .  S
C2420      C2421   1.402   1_655  A
C2420      H2425   1.083       .  S
C2421      C2422   1.414       .  A
C2422      C2423   1.519       .  S
C2423      F2427   1.384       .  S
C2423      F2428   1.384       .  S
C2423      F2429   1.382       .  S
C2426      F2430   1.382       .  S
C2426      F2431   1.383       .  S
C2426      F2432   1.385       .  S
C2433      C2434   1.402       .  A
C2433      C2438   1.406       .  A
C2433      H2440   1.083       .  S
C2434      C2435   1.416   1_655  A
C2435      C2436   1.406       .  A
C2435      C2442   1.518       .  S
C2436      C2437   1.402   1_455  A
C2436      H2441   1.083       .  S
C2437      C2438   1.416       .  A
C2438      C2439   1.518       .  S
C2439      F2443   1.385       .  S
C2439      F2444   1.381       .  S
C2439      F2445   1.383       .  S
C2442      F2446   1.383       .  S
C2442      F2447   1.381       .  S
C2442      F2448   1.385       .  S
C2449      C2450   1.403   1_556  A
C2449      C2454   1.401       .  A
C2449      H2456   1.081       .  S
C2450      C2451   1.424       .  A
C2451      C2452   1.415       .  A
C2451      C2458   1.518       .  S
C2452      C2453   1.408       .  A
C2452      H2457   1.082       .  S
C2453      C2454   1.426   1_554  A
C2454      C2455   1.526       .  S
C2455      F2459   1.385       .  S
C2455      F2460   1.384       .  S
C2455      F2461   1.384   1_556  S
C2458      F2462   1.382   1_554  S
C2458      F2463   1.383       .  S
C2458      F2464   1.385       .  S
C2465      C2466   1.402       .  A
C2465      C2470   1.402       .  A
C2465      H2472   1.080       .  S
C2466      C2467   1.426       .  A
C2467      C2468   1.413       .  A
C2467      C2474   1.519   1_554  S
C2468      C2469   1.406       .  A
C2468      H2473   1.082   1_554  S
C2469      C2470   1.429       .  A
C2470      C2471   1.528       .  S
C2471      F2475   1.385       .  S
C2471      F2476   1.382       .  S
C2471      F2477   1.384   1_554  S
C2474      F2478   1.382   1_556  S
C2474      F2479   1.383       .  S
C2474      F2480   1.385       .  S
C2481      C2482   1.409       .  A
C2481      C2486   1.414       .  A
C2481      H2488   1.082       .  S
C2482      C2483   1.428       .  A
C2483      C2484   1.403       .  A
C2483      C2490   1.525       .  S
C2484      C2485   1.400       .  A
C2484      H2489   1.082       .  S
C2485      C2486   1.421       .  A
C2486      C2487   1.519   1_554  S
C2487      F2491   1.385       .  S
C2487      F2492   1.383       .  S
C2487      F2493   1.381   1_556  S
C2490      F2494   1.384       .  S
C2490      F2495   1.384       .  S
C2490      F2496   1.385       .  S
C2497      C2498   1.407       .  A
C2497      C2502   1.404       .  A
C2497      H2504   1.082   1_554  S
C2498      C2499   1.424       .  A
C2499      C2500   1.404       .  A
C2499      C2506   1.521       .  S
C2500      C2501   1.401       .  A
C2500      H2505   1.083       .  S
C2501      C2502   1.417       .  A
C2502      C2503   1.521   1_554  S
C2503      F2507   1.385       .  S
C2503      F2508   1.383       .  S
C2503      F2509   1.381   1_556  S
C2506      F2510   1.382       .  S
C2506      F2511   1.383       .  S
C2506      F2512   1.385       .  S
C2513      C2514   1.406       .  A
C2513      C2518   1.414       .  A
C2513      H2520   1.082       .  S
C2514      C2515   1.428       .  A
C2515      C2516   1.400       .  A
C2515      C2522   1.527       .  S
C2516      C2517   1.402       .  A
C2516      H2521   1.080       .  S
C2517      C2518   1.425       .  A
C2518      C2519   1.518       .  S
C2519      F2523   1.385   1_554  S
C2519      F2524   1.382       .  S
C2519      F2525   1.383   1_554  S
C2522      F2526   1.383       .  S
C2522      F2527   1.384       .  S
C2522      F2528   1.385       .  S
C2529      C2530   1.401       .  A
C2529      C2534   1.403       .  A
C2529      H2536   1.084       .  S
C2530      C2531   1.417       .  A
C2531      C2532   1.410       .  A
C2531      C2538   1.518       .  S
C2532      C2533   1.404       .  A
C2532      H2537   1.083       .  S
C2533      C2534   1.417       .  A
C2534      C2535   1.519       .  S
C2535      F2539   1.385       .  S
C2535      F2540   1.381       .  S
C2535      F2541   1.383       .  S
C2538      F2542   1.383       .  S
C2538      F2543   1.383       .  S
C2538      F2544   1.385       .  S
C2545      C2546   1.403       .  A
C2545      C2550   1.408       .  A
C2545      H2552   1.083       .  S
C2546      C2547   1.416       .  A
C2547      C2548   1.403       .  A
C2547      C2554   1.519       .  S
C2548      C2549   1.400       .  A
C2548      H2553   1.084       .  S
C2549      C2550   1.416       .  A
C2550      C2551   1.518       .  S
C2551      F2555   1.385       .  S
C2551      F2556   1.383       .  S
C2551      F2557   1.383       .  S
C2554      F2558   1.381       .  S
C2554      F2559   1.384       .  S
C2554      F2560   1.385       .  S
C2561      C2562   1.404       .  A
C2561      C2566   1.409       .  A
C2561      H2568   1.083       .  S
C2562      C2563   1.417       .  A
C2563      C2564   1.404       .  A
C2563      C2570   1.519       .  S
C2564      C2565   1.401       .  A
C2564      H2569   1.083       .  S
C2565      C2566   1.417       .  A
C2566      C2567   1.518       .  S
C2567      F2571   1.385       .  S
C2567      F2572   1.383       .  S
C2567      F2573   1.383       .  S
C2570      F2574   1.384       .  S
C2570      F2575   1.380       .  S
C2570      F2576   1.385       .  S
C2577      C2578   1.402       .  A
C2577      C2582   1.405       .  A
C2577      H2584   1.083       .  S
C2578      C2579   1.414       .  A
C2579      C2580   1.406       .  A
C2579      C2586   1.517       .  S
C2580      C2581   1.401       .  A
C2580      H2585   1.084       .  S
C2581      C2582   1.413       .  A
C2582      C2583   1.518       .  S
C2583      F2587   1.384       .  S
C2583      F2588   1.384       .  S
C2583      F2589   1.383       .  S
C2586      F2590   1.383       .  S
C2586      F2591   1.383       .  S
C2586      F2592   1.385       .  S
C2593      C2594   1.401       .  A
C2593      C2598   1.406       .  A
C2593      H2600   1.083       .  S
C2594      C2595   1.413       .  A
C2595      C2596   1.405       .  A
C2595      C2602   1.517       .  S
C2596      C2597   1.401       .  A
C2596      H2601   1.083       .  S
C2597      C2598   1.414       .  A
C2598      C2599   1.517       .  S
C2599      F2603   1.384       .  S
C2599      F2604   1.383       .  S
C2599      F2605   1.383       .  S
C2602      F2606   1.383       .  S
C2602      F2607   1.383       .  S
C2602      F2608   1.384       .  S
C2609      C2610   1.408       .  A
C2609      C2614   1.413       .  A
C2609      H2616   1.083       .  S
C2610      C2611   1.419       .  A
C2611      C2612   1.403       .  A
C2611      C2618   1.521       .  S
C2612      C2613   1.407       .  A
C2612      H2617   1.083       .  S
C2613      C2614   1.422       .  A
C2614      C2615   1.519       .  S
C2615      F2619   1.385       .  S
C2615      F2620   1.383       .  S
C2615      F2621   1.383       .  S
C2618      F2622   1.381       .  S
C2618      F2623   1.383       .  S
C2618      F2624   1.385       .  S
C2625      C2626   1.409       .  A
C2625      C2630   1.413       .  A
C2625      H2632   1.083       .  S
C2626      C2627   1.428       .  A
C2627      C2628   1.404       .  A
C2627      C2634   1.525       .  S
C2628      C2629   1.400       .  A
C2628      H2633   1.083       .  S
C2629      C2630   1.418       .  A
C2630      C2631   1.518       .  S
C2631      F2635   1.385       .  S
C2631      F2636   1.383       .  S
C2631      F2637   1.381       .  S
C2634      F2638   1.383       .  S
C2634      F2639   1.383       .  S
C2634      F2640   1.385       .  S
C2641      C2642   1.406       .  A
C2641      C2646   1.416       .  A
C2641      H2648   1.083       .  S
C2642      C2643   1.418       .  A
C2643      C2644   1.400       .  A
C2643      C2650   1.522       .  S
C2644      C2645   1.408       .  A
C2644      H2649   1.083       .  S
C2645      C2646   1.425       .  A
C2646      C2647   1.518       .  S
C2647      F2651   1.385       .  S
C2647      F2652   1.383       .  S
C2647      F2653   1.383       .  S
C2650      F2654   1.382       .  S
C2650      F2655   1.383       .  S
C2650      F2656   1.385       .  S
C2657      C2658   1.403       .  A
C2657      C2662   1.410       .  A
C2657      H2664   1.083       .  S
C2658      C2659   1.417       .  A
C2659      C2660   1.404       .  A
C2659      C2666   1.520       .  S
C2660      C2661   1.405       .  A
C2660      H2665   1.083       .  S
C2661      C2662   1.420       .  A
C2662      C2663   1.519       .  S
C2663      F2667   1.385       .  S
C2663      F2668   1.383       .  S
C2663      F2669   1.383       .  S
C2666      F2670   1.383       .  S
C2666      F2671   1.380       .  S
C2666      F2672   1.385       .  S
C2673      C2674   1.405       .  A
C2673      C2678   1.407       .  A
C2673      H2680   1.082       .  S
C2674      C2675   1.421       .  A
C2675      C2676   1.407       .  A
C2675      C2682   1.521       .  S
C2676      C2677   1.405       .  A
C2676      H2681   1.082       .  S
C2677      C2678   1.422       .  A
C2678      C2679   1.520       .  S
C2679      F2683   1.385       .  S
C2679      F2684   1.381       .  S
C2679      F2685   1.383       .  S
C2682      F2686   1.383       .  S
C2682      F2687   1.381       .  S
C2682      F2688   1.385       .  S
C2689      C2690   1.400   1_545  A
C2689      C2694   1.402       .  A
C2689      H2696   1.082       .  S
C2690      C2691   1.422       .  A
C2691      C2692   1.415       .  A
C2691      C2698   1.519       .  S
C2692      C2693   1.408       .  A
C2692      H2697   1.082       .  S
C2693      C2694   1.428   1_565  A
C2694      C2695   1.525       .  S
C2695      F2699   1.385       .  S
C2695      F2700   1.384       .  S
C2695      F2701   1.384   1_545  S
C2698      F2702   1.381   1_565  S
C2698      F2703   1.383       .  S
C2698      F2704   1.385       .  S
C2705      C2706   1.407   1_545  A
C2705      C2710   1.411       .  A
C2705      H2712   1.083       .  S
C2706      C2707   1.417       .  A
C2707      C2708   1.401       .  A
C2707      C2714   1.520       .  S
C2708      C2709   1.404       .  A
C2708      H2713   1.084       .  S
C2709      C2710   1.416   1_565  A
C2710      C2711   1.517       .  S
C2711      F2715   1.385       .  S
C2711      F2716   1.383       .  S
C2711      F2717   1.383       .  S
C2714      F2718   1.381       .  S
C2714      F2719   1.383       .  S
C2714      F2720   1.385       .  S
C2721      C2722   1.400       .  A
C2721      C2726   1.401       .  A
C2721      H2728   1.082       .  S
C2722      C2723   1.420       .  A
C2723      C2724   1.414       .  A
C2723      C2730   1.518   1_565  S
C2724      C2725   1.409       .  A
C2724      H2729   1.083   1_565  S
C2725      C2726   1.427       .  A
C2726      C2727   1.525       .  S
C2727      F2731   1.385       .  S
C2727      F2732   1.384       .  S
C2727      F2733   1.384       .  S
C2730      F2734   1.383       .  S
C2730      F2735   1.381   1_545  S
C2730      F2736   1.385       .  S
C2737      C2738   1.404   1_545  A
C2737      C2742   1.403       .  A
C2737      H2744   1.083       .  S
C2738      C2739   1.420       .  A
C2739      C2740   1.405       .  A
C2739      C2746   1.521       .  S
C2740      C2741   1.405       .  A
C2740      H2745   1.082       .  S
C2741      C2742   1.421   1_565  A
C2742      C2743   1.521       .  S
C2743      F2747   1.385       .  S
C2743      F2748   1.383       .  S
C2743      F2749   1.382   1_545  S
C2746      F2750   1.381       .  S
C2746      F2751   1.383       .  S
C2746      F2752   1.385       .  S
C2753      C2754   1.402   1_455  A
C2753      C2758   1.407       .  A
C2753      H2760   1.083       .  S
C2754      C2755   1.414       .  A
C2755      C2756   1.406       .  A
C2755      C2762   1.517       .  S
C2756      C2757   1.401       .  A
C2756      H2761   1.084       .  S
C2757      C2758   1.413   1_655  A
C2758      C2759   1.516       .  S
C2759      F2763   1.384       .  S
C2759      F2764   1.383       .  S
C2759      F2765   1.382       .  S
C2762      F2766   1.383       .  S
C2762      F2767   1.383       .  S
C2762      F2768   1.385       .  S
C2769      C2770   1.404       .  A
C2769      C2774   1.410       .  A
C2769      H2776   1.083       .  S
C2770      C2771   1.417   1_655  A
C2771      C2772   1.404       .  A
C2771      C2778   1.519       .  S
C2772      C2773   1.402   1_455  A
C2772      H2777   1.084       .  S
C2773      C2774   1.417       .  A
C2774      C2775   1.518       .  S
C2775      F2779   1.385       .  S
C2775      F2780   1.382       .  S
C2775      F2781   1.383       .  S
C2778      F2782   1.380       .  S
C2778      F2783   1.384       .  S
C2778      F2784   1.385       .  S
C2785      C2786   1.401   1_455  A
C2785      C2790   1.406       .  A
C2785      H2792   1.083       .  S
C2786      C2787   1.414       .  A
C2787      C2788   1.407       .  A
C2787      C2794   1.517       .  S
C2788      C2789   1.402   1_655  A
C2788      H2793   1.083       .  S
C2789      C2790   1.414       .  A
C2790      C2791   1.517       .  S
C2791      F2795   1.385       .  S
C2791      F2796   1.382       .  S
C2791      F2797   1.383       .  S
C2794      F2798   1.382       .  S
C2794      F2799   1.383       .  S
C2794      F2800   1.384       .  S
C2801      C2802   1.400   1_655  A
C2801      C2806   1.403       .  A
C2801      H2808   1.084       .  S
C2802      C2803   1.417       .  A
C2803      C2804   1.409       .  A
C2803      C2810   1.517       .  S
C2804      C2805   1.403   1_455  A
C2804      H2809   1.083       .  S
C2805      C2806   1.416       .  A
C2806      C2807   1.516       .  S
C2807      F2811   1.385       .  S
C2807      F2812   1.384       .  S
C2807      F2813   1.380       .  S
C2810      F2814   1.382       .  S
C2810      F2815   1.383       .  S
C2810      F2816   1.385       .  S
C2817      C2818   1.401   1_455  A
C2817      C2822   1.406       .  A
C2817      H2824   1.083       .  S
C2818      C2819   1.414       .  A
C2819      C2820   1.406       .  A
C2819      C2826   1.517       .  S
C2820      C2821   1.401       .  A
C2820      H2825   1.083       .  S
C2821      C2822   1.414   1_655  A
C2822      C2823   1.518       .  S
C2823      F2827   1.384       .  S
C2823      F2828   1.383       .  S
C2823      F2829   1.382       .  S
C2826      F2830   1.382       .  S
C2826      F2831   1.383       .  S
C2826      F2832   1.384       .  S
C2833      C2834   1.403   1_545  A
C2833      C2838   1.402       .  A
C2833      H2840   1.082       .  S
C2834      C2835   1.426       .  A
C2835      C2836   1.413       .  A
C2835      C2842   1.519       .  S
C2836      C2837   1.404       .  A
C2836      H2841   1.083       .  S
C2837      C2838   1.425   1_565  A
C2838      C2839   1.525       .  S
C2839      F2843   1.385       .  S
C2839      F2844   1.383   1_545  S
C2839      F2845   1.384       .  S
C2842      F2846   1.382       .  S
C2842      F2847   1.382       .  S
C2842      F2848   1.385       .  S
C2849      C2850   1.399       .  A
C2849      C2854   1.404       .  A
C2849      H2856   1.083       .  S
C2850      C2851   1.414       .  A
C2851      C2852   1.406       .  A
C2851      C2858   1.516       .  S
C2852      C2853   1.401       .  A
C2852      H2857   1.083       .  S
C2853      C2854   1.414       .  A
C2854      C2855   1.516       .  S
C2855      F2859   1.384       .  S
C2855      F2860   1.384       .  S
C2855      F2861   1.381       .  S
C2858      F2862   1.383       .  S
C2858      F2863   1.383       .  S
C2858      F2864   1.385       .  S
C2865      C2866   1.403       .  A
C2865      C2870   1.408       .  A
C2865      H2872   1.083       .  S
C2866      C2867   1.415       .  A
C2867      C2868   1.403       .  A
C2867      C2874   1.519       .  S
C2868      C2869   1.400       .  A
C2868      H2873   1.083       .  S
C2869      C2870   1.414       .  A
C2870      C2871   1.517       .  S
C2871      F2875   1.384       .  S
C2871      F2876   1.383       .  S
C2871      F2877   1.381       .  S
C2874      F2878   1.384       .  S
C2874      F2879   1.381       .  S
C2874      F2880   1.385       .  S
C2881      C2882   1.400       .  A
C2881      C2886   1.403       .  A
C2881      H2888   1.084       .  S
C2882      C2883   1.416       .  A
C2883      C2884   1.410       .  A
C2883      C2890   1.518       .  S
C2884      C2885   1.404       .  A
C2884      H2889   1.083       .  S
C2885      C2886   1.417       .  A
C2886      C2887   1.516       .  S
C2887      F2891   1.385       .  S
C2887      F2892   1.381       .  S
C2887      F2893   1.384       .  S
C2890      F2894   1.383       .  S
C2890      F2895   1.382       .  S
C2890      F2896   1.385       .  S
C2897      C2898   1.402       .  A
C2897      C2902   1.404       .  A
C2897      H2904   1.083       .  S
C2898      C2899   1.418       .  A
C2899      C2900   1.407       .  A
C2899      C2906   1.519       .  S
C2900      C2901   1.403       .  A
C2900      H2905   1.083       .  S
C2901      C2902   1.417       .  A
C2902      C2903   1.520       .  S
C2903      F2907   1.385       .  S
C2903      F2908   1.383       .  S
C2903      F2909   1.382       .  S
C2906      F2910   1.381       .  S
C2906      F2911   1.383       .  S
C2906      F2912   1.385       .  S
C2913      C2914   1.405       .  A
C2913      C2918   1.405       .  A
C2913      H2920   1.083       .  S
C2914      C2915   1.421       .  A
C2915      C2916   1.406       .  A
C2915      C2922   1.520       .  S
C2916      C2917   1.403       .  A
C2916      H2921   1.083       .  S
C2917      C2918   1.420       .  A
C2918      C2919   1.520       .  S
C2919      F2923   1.385       .  S
C2919      F2924   1.383       .  S
C2919      F2925   1.381       .  S
C2922      F2926   1.381       .  S
C2922      F2927   1.383       .  S
C2922      F2928   1.385       .  S
C2929      C2930   1.404   1_455  A
C2929      C2934   1.409       .  A
C2929      H2936   1.083       .  S
C2930      C2931   1.416       .  A
C2931      C2932   1.405       .  A
C2931      C2938   1.518       .  S
C2932      C2933   1.401       .  A
C2932      H2937   1.084       .  S
C2933      C2934   1.416   1_655  A
C2934      C2935   1.518       .  S
C2935      F2939   1.385       .  S
C2935      F2940   1.383       .  S
C2935      F2941   1.382       .  S
C2938      F2942   1.384       .  S
C2938      F2943   1.381       .  S
C2938      F2944   1.385       .  S
C2945      C2946   1.402       .  A
C2945      C2950   1.405       .  A
C2945      H2952   1.083       .  S
C2946      C2947   1.418   1_655  A
C2947      C2948   1.409       .  A
C2947      C2954   1.518       .  S
C2948      C2949   1.402   1_455  A
C2948      H2953   1.083       .  S
C2949      C2950   1.415       .  A
C2950      C2951   1.519       .  S
C2951      F2955   1.384       .  S
C2951      F2956   1.384       .  S
C2951      F2957   1.382       .  S
C2954      F2958   1.382       .  S
C2954      F2959   1.383       .  S
C2954      F2960   1.385       .  S
C2961      C2962   1.404   1_455  A
C2961      C2966   1.410       .  A
C2961      H2968   1.083       .  S
C2962      C2963   1.416       .  A
C2963      C2964   1.403       .  A
C2963      C2970   1.516       .  S
C2964      C2965   1.401       .  A
C2964      H2969   1.084       .  S
C2965      C2966   1.417   1_655  A
C2966      C2967   1.518       .  S
C2967      F2971   1.385       .  S
C2967      F2972   1.383       .  S
C2967      F2973   1.382       .  S
C2970      F2974   1.381       .  S
C2970      F2975   1.384       .  S
C2970      F2976   1.385       .  S
C2977      C2978   1.402   1_655  A
C2977      C2982   1.407       .  A
C2977      H2984   1.083       .  S
C2978      C2979   1.414       .  A
C2979      C2980   1.405       .  A
C2979      C2986   1.517       .  S
C2980      C2981   1.400   1_455  A
C2980      H2985   1.084       .  S
C2981      C2982   1.414       .  A
C2982      C2983   1.518       .  S
C2983      F2987   1.384       .  S
C2983      F2988   1.383       .  S
C2983      F2989   1.383       .  S
C2986      F2990   1.383       .  S
C2986      F2991   1.382       .  S
C2986      F2992   1.385       .  S
C2993      C2994   1.401   1_455  A
C2993      C2998   1.406       .  A
C2993      H3000   1.083       .  S
C2994      C2995   1.414       .  A
C2995      C2996   1.406       .  A
C2995      C3002   1.517       .  S
C2996      C2997   1.401       .  A
C2996      H3001   1.083       .  S
C2997      C2998   1.414   1_655  A
C2998      C2999   1.517       .  S
C2999      F3003   1.384       .  S
C2999      F3004   1.382       .  S
C2999      F3005   1.383       .  S
C3002      F3006   1.383       .  S
C3002      F3007   1.382       .  S
C3002      F3008   1.384       .  S
C3009      C3010   1.405       .  A
C3009      C3014   1.402       .  A
C3009      H3016   1.079       .  S
C3010      C3011   1.427       .  A
C3011      C3012   1.416       .  A
C3011      C3018   1.518       .  S
C3012      C3013   1.408       .  A
C3012      H3017   1.082       .  S
C3013      C3014   1.426       .  A
C3014      C3015   1.525       .  S
C3015      F3019   1.385       .  S
C3015      F3020   1.382       .  S
C3015      F3021   1.384   1_565  S
C3018      F3022   1.382       .  S
C3018      F3023   1.383   1_565  S
C3018      F3024   1.385   1_565  S
C3025      C3026   1.401   1_545  A
C3025      C3030   1.398   1_545  A
C3025      H3032   1.080       .  S
C3026      C3027   1.424       .  A
C3027      C3028   1.415       .  A
C3027      C3034   1.518       .  S
C3028      C3029   1.408       .  A
C3028      H3033   1.083       .  S
C3029      C3030   1.429       .  A
C3030      C3031   1.528       .  S
C3031      F3035   1.385   1_565  S
C3031      F3036   1.379   1_565  S
C3031      F3037   1.383       .  S
C3034      F3038   1.381   1_565  S
C3034      F3039   1.383       .  S
C3034      F3040   1.385       .  S
C3041      C3042   1.403   1_545  A
C3041      C3046   1.405       .  A
C3041      H3048   1.082       .  S
C3042      C3043   1.422       .  A
C3043      C3044   1.412       .  A
C3043      C3050   1.519       .  S
C3044      C3045   1.408       .  A
C3044      H3049   1.082       .  S
C3045      C3046   1.425   1_565  A
C3046      C3047   1.523       .  S
C3047      F3051   1.385       .  S
C3047      F3052   1.383   1_545  S
C3047      F3053   1.384       .  S
C3050      F3054   1.383       .  S
C3050      F3055   1.381   1_565  S
C3050      F3056   1.385       .  S
C3057      C3058   1.406       .  A
C3057      C3062   1.403       .  A
C3057      H3064   1.078       .  S
C3058      C3059   1.429       .  A
C3059      C3060   1.412       .  A
C3059      C3066   1.519       .  S
C3060      C3061   1.405       .  A
C3060      H3065   1.082       .  S
C3061      C3062   1.426       .  A
C3062      C3063   1.527   1_565  S
C3063      F3067   1.385       .  S
C3063      F3068   1.383       .  S
C3063      F3069   1.384   1_545  S
C3066      F3070   1.382   1_565  S
C3066      F3071   1.382       .  S
C3066      F3072   1.385       .  S
C3073      C3074   1.406       .  A
C3073      C3078   1.405       .  A
C3073      H3080   1.082       .  S
C3074      C3075   1.424   1_565  A
C3075      C3076   1.404       .  A
C3075      C3082   1.521       .  S
C3076      C3077   1.401   1_545  A
C3076      H3081   1.083       .  S
C3077      C3078   1.418       .  A
C3078      C3079   1.521       .  S
C3079      F3083   1.385       .  S
C3079      F3084   1.383       .  S
C3079      F3085   1.381   1_565  S
C3082      F3086   1.382   1_545  S
C3082      F3087   1.383       .  S
C3082      F3088   1.385       .  S
C3089      C3090   1.407       .  A
C3089      C3094   1.414       .  A
C3089      H3096   1.083   1_554  S
C3090      C3091   1.416       .  A
C3091      C3092   1.400       .  A
C3091      C3098   1.522       .  S
C3092      C3093   1.410       .  A
C3092      H3097   1.082       .  S
C3093      C3094   1.423       .  A
C3094      C3095   1.518   1_554  S
C3095      F3099   1.385       .  S
C3095      F3100   1.383       .  S
C3095      F3101   1.384   1_556  S
C3098      F3102   1.381       .  S
C3098      F3103   1.383       .  S
C3098      F3104   1.385       .  S
C3105      C3106   1.407       .  A
C3105      C3110   1.413   1_554  A
C3105      H3112   1.082   1_554  S
C3106      C3107   1.428       .  A
C3107      C3108   1.401       .  A
C3107      C3114   1.525       .  S
C3108      C3109   1.400       .  A
C3108      H3113   1.082       .  S
C3109      C3110   1.422   1_554  A
C3110      C3111   1.518       .  S
C3111      F3115   1.385       .  S
C3111      F3116   1.383       .  S
C3111      F3117   1.381   1_556  S
C3114      F3118   1.384       .  S
C3114      F3119   1.384       .  S
C3114      F3120   1.385       .  S
C3121      C3122   1.407       .  A
C3121      C3126   1.416       .  A
C3121      H3128   1.082       .  S
C3122      C3123   1.429       .  A
C3123      C3124   1.400       .  A
C3123      C3130   1.528       .  S
C3124      C3125   1.402       .  A
C3124      H3129   1.078       .  S
C3125      C3126   1.428       .  A
C3126      C3127   1.518       .  S
C3127      F3131   1.385       .  S
C3127      F3132   1.382   1_554  S
C3127      F3133   1.383       .  S
C3130      F3134   1.380   1_554  S
C3130      F3135   1.384       .  S
C3130      F3136   1.385       .  S
C3137      C3138   1.400       .  A
C3137      C3142   1.404       .  A
C3137      H3144   1.084       .  S
C3138      C3139   1.417   1_554  A
C3139      C3140   1.409       .  A
C3139      C3146   1.517       .  S
C3140      C3141   1.401   1_556  A
C3140      H3145   1.083       .  S
C3141      C3142   1.413       .  A
C3142      C3143   1.512       .  S
C3143      F3147   1.385       .  S
C3143      F3148   1.383       .  S
C3143      F3149   1.382       .  S
C3146      F3150   1.382       .  S
C3146      F3151   1.383       .  S
C3146      F3152   1.385       .  S
C3153      C3154   1.402   1_556  A
C3153      C3158   1.403       .  A
C3153      H3160   1.083       .  S
C3154      C3155   1.418       .  A
C3155      C3156   1.403       .  A
C3155      C3162   1.520       .  S
C3156      C3157   1.403       .  A
C3156      H3161   1.083       .  S
C3157      C3158   1.419   1_554  A
C3158      C3159   1.520       .  S
C3159      F3163   1.385       .  S
C3159      F3164   1.383       .  S
C3159      F3165   1.381       .  S
C3162      F3166   1.381       .  S
C3162      F3167   1.383       .  S
C3162      F3168   1.385       .  S
C3169      C3170   1.408       .  A
C3169      C3174   1.402       .  A
C3169      H3176   1.077       .  S
C3170      C3171   1.429       .  A
C3171      C3172   1.414       .  A
C3171      C3178   1.519       .  S
C3172      C3173   1.407       .  A
C3172      H3177   1.082       .  S
C3173      C3174   1.423       .  A
C3174      C3175   1.526       .  S
C3175      F3179   1.385       .  S
C3175      F3180   1.383       .  S
C3175      F3181   1.384       .  S
C3178      F3182   1.382       .  S
C3178      F3183   1.383       .  S
C3178      F3184   1.385       .  S
C3185      C3186   1.402       .  A
C3185      C3190   1.401       .  A
C3185      H3192   1.082       .  S
C3186      C3187   1.422       .  A
C3187      C3188   1.414       .  A
C3187      C3194   1.518       .  S
C3188      C3189   1.407       .  A
C3188      H3193   1.082       .  S
C3189      C3190   1.426       .  A
C3190      C3191   1.525       .  S
C3191      F3195   1.385       .  S
C3191      F3196   1.382       .  S
C3191      F3197   1.384       .  S
C3194      F3198   1.381       .  S
C3194      F3199   1.383       .  S
C3194      F3200   1.385       .  S
C3201      C3202   1.400       .  A
C3201      C3206   1.402       .  A
C3201      H3208   1.082       .  S
C3202      C3203   1.422       .  A
C3203      C3204   1.414       .  A
C3203      C3210   1.519       .  S
C3204      C3205   1.407       .  A
C3204      H3209   1.083       .  S
C3205      C3206   1.428       .  A
C3206      C3207   1.525       .  S
C3207      F3211   1.385       .  S
C3207      F3212   1.384       .  S
C3207      F3213   1.384       .  S
C3210      F3214   1.383       .  S
C3210      F3215   1.381       .  S
C3210      F3216   1.385       .  S
C3217      C3218   1.402       .  A
C3217      C3222   1.404       .  A
C3217      H3224   1.083       .  S
C3218      C3219   1.422       .  A
C3219      C3220   1.411       .  A
C3219      C3226   1.519       .  S
C3220      C3221   1.405       .  A
C3220      H3225   1.083       .  S
C3221      C3222   1.422       .  A
C3222      C3223   1.522       .  S
C3223      F3227   1.385       .  S
C3223      F3228   1.383       .  S
C3223      F3229   1.383       .  S
C3226      F3230   1.381       .  S
C3226      F3231   1.383       .  S
C3226      F3232   1.385       .  S
C3233      C3234   1.405       .  A
C3233      C3238   1.404       .  A
C3233      H3240   1.083       .  S
C3234      C3235   1.421       .  A
C3235      C3236   1.405       .  A
C3235      C3242   1.520       .  S
C3236      C3237   1.403       .  A
C3236      H3241   1.083       .  S
C3237      C3238   1.418       .  A
C3238      C3239   1.520       .  S
C3239      F3243   1.385       .  S
C3239      F3244   1.383       .  S
C3239      F3245   1.381       .  S
C3242      F3246   1.381       .  S
C3242      F3247   1.383       .  S
C3242      F3248   1.385       .  S
C3249      C3250   1.408       .  A
C3249      C3254   1.416       .  A
C3249      H3256   1.082       .  S
C3250      C3251   1.429       .  A
C3251      C3252   1.402       .  A
C3251      C3258   1.527       .  S
C3252      C3253   1.403       .  A
C3252      H3257   1.079       .  S
C3253      C3254   1.427       .  A
C3254      C3255   1.519       .  S
C3255      F3259   1.385       .  S
C3255      F3260   1.383       .  S
C3255      F3261   1.382       .  S
C3258      F3262   1.384       .  S
C3258      F3263   1.382       .  S
C3258      F3264   1.385       .  S
C3265      C3266   1.402       .  A
C3265      C3270   1.404       .  A
C3265      H3272   1.083       .  S
C3266      C3267   1.421       .  A
C3267      C3268   1.412       .  A
C3267      C3274   1.519       .  S
C3268      C3269   1.404       .  A
C3268      H3273   1.083       .  S
C3269      C3270   1.420       .  A
C3270      C3271   1.521       .  S
C3271      F3275   1.385       .  S
C3271      F3276   1.384       .  S
C3271      F3277   1.383       .  S
C3274      F3278   1.381       .  S
C3274      F3279   1.383       .  S
C3274      F3280   1.385       .  S
C3281      C3282   1.402       .  A
C3281      C3286   1.407       .  A
C3281      H3288   1.083       .  S
C3282      C3283   1.414       .  A
C3283      C3284   1.405       .  A
C3283      C3290   1.517       .  S
C3284      C3285   1.401       .  A
C3284      H3289   1.084       .  S
C3285      C3286   1.414       .  A
C3286      C3287   1.517       .  S
C3287      F3291   1.385       .  S
C3287      F3292   1.383       .  S
C3287      F3293   1.383       .  S
C3290      F3294   1.383       .  S
C3290      F3295   1.383       .  S
C3290      F3296   1.385       .  S
C3297      C3298   1.407       .  A
C3297      C3302   1.412       .  A
C3297      H3304   1.083       .  S
C3298      C3299   1.418       .  A
C3299      C3300   1.400       .  A
C3299      C3306   1.521       .  S
C3300      C3301   1.405       .  A
C3300      H3305   1.084       .  S
C3301      C3302   1.419       .  A
C3302      C3303   1.518       .  S
C3303      F3307   1.385       .  S
C3303      F3308   1.383       .  S
C3303      F3309   1.383       .  S
C3306      F3310   1.383       .  S
C3306      F3311   1.382       .  S
C3306      F3312   1.385       .  S
C3313      C3314   1.404       .  A
C3313      C3318   1.405       .  A
C3313      H3320   1.083       .  S
C3314      C3315   1.420       .  A
C3315      C3316   1.404       .  A
C3315      C3322   1.520       .  S
C3316      C3317   1.403       .  A
C3316      H3321   1.083       .  S
C3317      C3318   1.419       .  A
C3318      C3319   1.520       .  S
C3319      F3323   1.385       .  S
C3319      F3324   1.381       .  S
C3319      F3325   1.383       .  S
C3322      F3326   1.383       .  S
C3322      F3327   1.381       .  S
C3322      F3328   1.385       .  S
C3329      C3330   1.403       .  A
C3329      C3334   1.407       .  A
C3329      H3336   1.083       .  S
C3330      C3331   1.415       .  A
C3331      C3332   1.405       .  A
C3331      C3338   1.517       .  S
C3332      C3333   1.400       .  A
C3332      H3337   1.084       .  S
C3333      C3334   1.413       .  A
C3334      C3335   1.517       .  S
C3335      F3339   1.384       .  S
C3335      F3340   1.383       .  S
C3335      F3341   1.383       .  S
C3338      F3342   1.382       .  S
C3338      F3343   1.383       .  S
C3338      F3344   1.385       .  S
C3345      C3346   1.405       .  A
C3345      C3350   1.411       .  A
C3345      H3352   1.083       .  S
C3346      C3347   1.419       .  A
C3347      C3348   1.402       .  A
C3347      C3354   1.521       .  S
C3348      C3349   1.406       .  A
C3348      H3353   1.083       .  S
C3349      C3350   1.423       .  A
C3350      C3351   1.520       .  S
C3351      F3355   1.385       .  S
C3351      F3356   1.383       .  S
C3351      F3357   1.383       .  S
C3354      F3358   1.382       .  S
C3354      F3359   1.383       .  S
C3354      F3360   1.385       .  S
C3361      C3362   1.405       .  A
C3361      C3366   1.411       .  A
C3361      H3368   1.083       .  S
C3362      C3363   1.419       .  A
C3363      C3364   1.403       .  A
C3363      C3370   1.520       .  S
C3364      C3365   1.404       .  A
C3364      H3369   1.084       .  S
C3365      C3366   1.420       .  A
C3366      C3367   1.519       .  S
C3367      F3371   1.385       .  S
C3367      F3372   1.383       .  S
C3367      F3373   1.383       .  S
C3370      F3374   1.381       .  S
C3370      F3375   1.383       .  S
C3370      F3376   1.385       .  S
C3377      C3378   1.401       .  A
C3377      C3382   1.404       .  A
C3377      H3384   1.083       .  S
C3378      C3379   1.417       .  A
C3379      C3380   1.408       .  A
C3379      C3386   1.517       .  S
C3380      C3381   1.401       .  A
C3380      H3385   1.083       .  S
C3381      C3382   1.413       .  A
C3382      C3383   1.518       .  S
C3383      F3387   1.384       .  S
C3383      F3388   1.383       .  S
C3383      F3389   1.382       .  S
C3386      F3390   1.382       .  S
C3386      F3391   1.383       .  S
C3386      F3392   1.385       .  S
C3393      C3394   1.402       .  A
C3393      C3398   1.405       .  A
C3393      H3400   1.083       .  S
C3394      C3395   1.415       .  A
C3395      C3396   1.407       .  A
C3395      C3402   1.518       .  S
C3396      C3397   1.402       .  A
C3396      H3401   1.083       .  S
C3397      C3398   1.414       .  A
C3398      C3399   1.518       .  S
C3399      F3403   1.384       .  S
C3399      F3404   1.383       .  S
C3399      F3405   1.382       .  S
C3402      F3406   1.382       .  S
C3402      F3407   1.383       .  S
C3402      F3408   1.384       .  S
