geometry optimzed in LAMMPS
_audit_creation_date              2020-12-01 
_audit_creation_method            'lammps2cif' 
_symmetry_space_group_name_H-M    'P1' 
_symmetry_Int_Tables_number       1 
_symmetry_cell_setting            triclinic 
loop_ 
_symmetry_equiv_pos_as_xyz 
  x,y,z 
_cell_length_a                    47.56835251 
_cell_length_b                    47.55857157459905 
_cell_length_c                    47.56806485097802 
_cell_angle_alpha                 90.05468913513045 
_cell_angle_beta                  90.07692715082285 
_cell_angle_gamma                 89.97860862347149 
loop_ 
_atom_site_label 
_atom_site_type_symbol 
_atom_site_fract_x 
_atom_site_fract_y 
_atom_site_fract_z 
_atom_site_charge 
N1          N  0.69837848  0.71013140  0.87262750    -0.26800
N2          N  0.71909242  0.69156616  0.87174228    -0.34700
C3          C  0.73825825  0.69816745  0.89152103    -0.04900
C4          C  0.72907598  0.72190606  0.90553401     0.07600
C5          C  0.70378388  0.72897220  0.89306377    -0.05500
H6          H  0.75769735  0.68688631  0.89503606     0.08200
H7          H  0.69071659  0.74694774  0.89792032     0.09400
Cu8        Cu  0.72115622  0.65890411  0.84278669     0.44200
Cu9        Cu  0.66492015  0.71060192  0.84443674     0.42000
Cu10       Cu  0.66650146  0.65790449  0.78971458     0.43900
N11         N  0.71850799  0.62882799  0.81120829    -0.34200
N12         N  0.69822775  0.62831074  0.79216330    -0.28400
C13         C  0.70288830  0.60700621  0.77419092    -0.04500
C14         C  0.72725409  0.59351580  0.78232026     0.07700
C15         C  0.73677014  0.60792409  0.80571182     0.01500
H16         H  0.69020091  0.60247654  0.75584661     0.09100
H17         H  0.75600439  0.60411788  0.81725719     0.08200
N18         N  0.63748686  0.69023390  0.79098569    -0.35600
N19         N  0.63657027  0.70939553  0.81113683    -0.27800
C20         C  0.61595786  0.72788724  0.80524398    -0.03100
C21         C  0.60345710  0.71985013  0.78023894     0.05600
C22         C  0.61759948  0.69599776  0.77173114     0.03600
H23         H  0.61094897  0.74619136  0.81779288     0.08800
H24         H  0.61408208  0.68404300  0.75268955     0.07600
N25         N  0.71497516  0.91576146  0.64489613    -0.26800
N26         N  0.69500197  0.91529015  0.66423497    -0.34700
C27         C  0.70024180  0.93542234  0.68341610     0.01500
C28         C  0.72461323  0.94918255  0.67575662     0.07600
C29         C  0.73347023  0.93621334  0.65131313    -0.05500
H30         H  0.68768854  0.93923272  0.70198024     0.08200
H31         H  0.75232404  0.94080893  0.63948737     0.09400
Cu32       Cu  0.66255698  0.88613259  0.66520895     0.44200
Cu33       Cu  0.71736398  0.88735255  0.61176505     0.42000
Cu34       Cu  0.66605285  0.83081849  0.61396361     0.43900
N35         N  0.63469214  0.85259001  0.66427180    -0.34200
N36         N  0.63618757  0.83205487  0.64557740    -0.28400
C37         C  0.61645149  0.81268520  0.65146729    -0.04500
C38         C  0.60180535  0.82161464  0.67488910     0.07700
C39         C  0.61390742  0.84689754  0.68254951     0.01500
H40         H  0.61346968  0.79325216  0.64000680     0.09100
H41         H  0.60860063  0.85971810  0.70057438     0.08200
N42         N  0.69821690  0.83324424  0.58477035    -0.35600
N43         N  0.71688328  0.85383531  0.58372912    -0.27800
C44         C  0.73559284  0.84818536  0.56326886    -0.03100
C45         C  0.72824000  0.82288183  0.55097738     0.05600
C46         C  0.70449979  0.81400182  0.56505241     0.03600
H47         H  0.75364907  0.86106943  0.55829882     0.08800
H48         H  0.69313059  0.79457421  0.56177071     0.07600
N49         N  0.86052760  0.62943936  0.66878418    -0.26800
N50         N  0.84168444  0.62833772  0.64832627    -0.34700
C51         C  0.82318556  0.60770498  0.65383163     0.01500
C52         C  0.83074230  0.59528831  0.67894327     0.07600
C53         C  0.85439856  0.60956897  0.68796517    -0.05500
H54         H  0.80516231  0.60261182  0.64090195     0.08200
H55         H  0.86597996  0.60610756  0.70724032     0.09400
Cu56       Cu  0.84051948  0.65612265  0.61486389     0.44200
Cu57       Cu  0.89294512  0.65877699  0.67020622     0.42000
Cu58       Cu  0.89109233  0.71279269  0.61645772     0.43900
N59         N  0.84140034  0.68831459  0.58560019    -0.34200
N60         N  0.85963031  0.70929420  0.58639178    -0.28400
C61         C  0.85327906  0.72773621  0.56591056    -0.04500
C62         C  0.83005983  0.71775098  0.55156793     0.07700
C63         C  0.82301701  0.69278404  0.56456652     0.01500
H64         H  0.86417354  0.74736624  0.56231842     0.09100
H65         H  0.80519095  0.67946837  0.55983923     0.08200
N66         N  0.92075287  0.71154539  0.64845939    -0.35600
N67         N  0.92169448  0.69167946  0.66789653    -0.27800
C68         C  0.94270296  0.69750909  0.68597602    -0.03100
C69         C  0.95549450  0.72217648  0.67745620     0.05600
C70         C  0.94103675  0.73056757  0.65370349     0.03600
H71         H  0.94768131  0.68525092  0.70447125     0.08800
H72         H  0.94450913  0.74947607  0.64157501     0.07600
N73         N  0.86178816  0.83775307  0.87212314    -0.26800
N74         N  0.84296763  0.85820744  0.87346348    -0.34700
C75         C  0.82431213  0.85221164  0.89382406     0.01500
C76         C  0.83177251  0.82678320  0.90569624     0.07600
C77         C  0.85553996  0.81814801  0.89149235    -0.05500
H78         H  0.80620488  0.86496210  0.89900636     0.08200
H79         H  0.86708538  0.79879463  0.89459307     0.09400
Cu80       Cu  0.84157842  0.89181823  0.84570409     0.44200
Cu81       Cu  0.89411361  0.83628978  0.84298330     0.42000
Cu82       Cu  0.89179767  0.88907417  0.78865596     0.43900
N83         N  0.84079198  0.91903756  0.81164725    -0.34200
N84         N  0.85882444  0.91769413  0.79053458    -0.28400
C85         C  0.85134855  0.93659722  0.77085064    -0.04500
C86         C  0.82756965  0.95045983  0.78011749     0.07700
C87         C  0.82143753  0.93890187  0.80602097     0.01500
H88         H  0.86211499  0.93966440  0.75107353     0.09100
H89         H  0.80379054  0.94400582  0.81941162     0.08200
N90         N  0.92150639  0.85704449  0.78986778    -0.35600
N91         N  0.92248077  0.83789769  0.80999442    -0.27800
C92         C  0.94326098  0.81956554  0.80435854    -0.03100
C93         C  0.95592755  0.82758401  0.77951647     0.05600
C94         C  0.94158896  0.85131324  0.77077872     0.03600
H95         H  0.94819326  0.80125753  0.81691408     0.08800
H96         H  0.94503247  0.86310399  0.75165589     0.07600
N97         N  0.78171944  0.77315230  0.93573096    -0.36100
N98         N  0.80892868  0.80797033  0.97876720    -0.56700
N99         N  0.77375372  0.78165100  0.02154038    -0.36100
N100        N  0.74686714  0.74648417  0.97857729    -0.56700
C101        C  0.79614293  0.79116559  0.91904434     0.27500
C102        C  0.76399729  0.75834215  0.91897881     0.27500
C103        C  0.79119961  0.79665336  0.03840238     0.27500
C104        C  0.75805381  0.76485908  0.03831354     0.27500
C105        C  0.82247006  0.81823690  0.95606430     0.36100
C106        C  0.82018567  0.82078246  0.00150459     0.36100
C107        C  0.73685590  0.73242000  0.95598641     0.36100
C108        C  0.73359757  0.73592804  0.00133385     0.36100
C109        C  0.78807047  0.78709200  0.89129532    -0.21400
C110        C  0.76790306  0.76644640  0.89125190    -0.21400
C111        C  0.78578485  0.78995756  0.06625413    -0.21400
C112        C  0.76496015  0.77001586  0.06620277    -0.21400
C113        C  0.84249208  0.83773257  0.96443368    -0.22500
C114        C  0.84106485  0.83931790  0.99318895    -0.22500
C115        C  0.71708394  0.71276919  0.96444399    -0.22500
C116        C  0.71498159  0.71502223  0.99311538    -0.22500
C117        C  0.81648096  0.81120175  0.92779353    -0.17800
C118        C  0.74422995  0.73777471  0.92769191    -0.17800
C119        C  0.73823993  0.74432465  0.02952541    -0.17800
C120        C  0.81231125  0.81586487  0.02973254    -0.17800
H121        H  0.79568429  0.79806317  0.87289606     0.15100
H122        H  0.75707023  0.75860217  0.87282538     0.15100
H123        H  0.79613447  0.79814554  0.08480653     0.15100
H124        H  0.75639263  0.75998359  0.08471512     0.15100
H125        H  0.85659023  0.84970462  0.95121306     0.13400
H126        H  0.85394003  0.85263408  0.00643220     0.13400
H127        H  0.70518554  0.69846115  0.95132186     0.13400
H128        H  0.70129290  0.70262205  0.00636890     0.13400
H129        H  0.78529029  0.76968724  0.95691523     0.26600
H130        H  0.77161539  0.78376540  0.00002679     0.26600
N131        N  0.98606130  0.77653165  0.72673785    -0.36100
N132        N  0.02867184  0.74008364  0.70158607    -0.56700
N133        N  0.07153452  0.76579710  0.73773701    -0.36100
N134        N  0.02899158  0.80253863  0.76262543    -0.56700
C135        C  0.96915017  0.75926227  0.71158147     0.27500
C136        C  0.96930013  0.79238294  0.74346205     0.27500
C137        C  0.08828102  0.75062861  0.72036602     0.27500
C138        C  0.08840775  0.78320283  0.75277510     0.27500
C139        C  0.00599427  0.72972022  0.68791658     0.36100
C140        C  0.05127189  0.72594995  0.69178449     0.36100
C141        C  0.00633633  0.81650922  0.77258813     0.36100
C142        C  0.05156034  0.81223980  0.77696441     0.36100
C143        C  0.94129435  0.76503915  0.71800257    -0.21400
C144        C  0.94138523  0.78584708  0.73800349    -0.21400
C145        C  0.11614040  0.75790390  0.72509520    -0.21400
C146        C  0.11621978  0.77836008  0.74544653    -0.21400
C147        C  0.01426908  0.70892821  0.66922703    -0.22500
C148        C  0.04290173  0.70655005  0.67166135    -0.22500
C149        C  0.01461016  0.83529146  0.79332767    -0.22500
C150        C  0.04319258  0.83258034  0.79610303    -0.22500
C151        C  0.97778199  0.73795690  0.69251752    -0.17800
C152        C  0.97811878  0.81207305  0.76413216    -0.17800
C153        C  0.07975443  0.80373079  0.77264820    -0.17800
C154        C  0.07948534  0.73064323  0.69999703    -0.17800
H155        H  0.92271100  0.75493758  0.70959285     0.15100
H156        H  0.92287779  0.79468469  0.74784245     0.15100
H157        H  0.13459303  0.74973823  0.71459465     0.15100
H158        H  0.13474296  0.78887253  0.75347511     0.15100
H159        H  0.00105776  0.69663332  0.65534279     0.13400
H160        H  0.05603335  0.69215162  0.65991091     0.13400
H161        H  0.00142055  0.84939377  0.80536917     0.13400
H162        H  0.05629441  0.84430746  0.81056863     0.13400
H163        H  0.00763889  0.77838826  0.72481087     0.26600
H164        H  0.05011347  0.76307947  0.74050531     0.26600
N165        N  0.77569729  0.97969295  0.72796800    -0.36100
N166        N  0.74202135  0.02233568  0.69963018    -0.56700
N167        N  0.76951161  0.06548156  0.73309739    -0.36100
N168        N  0.80246639  0.02295946  0.76211403    -0.56700
C169        C  0.75692365  0.96312888  0.71439003     0.27500
C170        C  0.78917877  0.96348071  0.74710130     0.27500
C171        C  0.74923391  0.08104918  0.72056217     0.27500
C172        C  0.78097662  0.08132635  0.75380796     0.27500
C173        C  0.73442456  0.99973971  0.68413815     0.36100
C174        C  0.73188188  0.04524102  0.68620162     0.36100
C175        C  0.81825999  0.00071471  0.77005308     0.36100
C176        C  0.81521268  0.04613156  0.77254054     0.36100
C177        C  0.75883482  0.93592511  0.72475560    -0.21400
C178        C  0.77915116  0.93615417  0.74536067    -0.21400
C179        C  0.74794863  0.10723660  0.73337070    -0.21400
C180        C  0.76790637  0.10741185  0.75428027    -0.21400
C181        C  0.71899107  0.00828909  0.66092659    -0.22500
C182        C  0.71742234  0.03710207  0.66220102    -0.22500
C183        C  0.84097989  0.00974288  0.78594278    -0.22500
C184        C  0.83905452  0.03850385  0.78752541    -0.22500
C185        C  0.73938286  0.97143753  0.69175752    -0.17800
C186        C  0.81134402  0.97227244  0.76498159    -0.17800
C187        C  0.80452976  0.07381813  0.77049471    -0.17800
C188        C  0.73357096  0.07313522  0.69644256    -0.17800
H189        H  0.74710788  0.91764372  0.71796288     0.15100
H190        H  0.78596565  0.91812381  0.75744926     0.15100
H191        H  0.73457467  0.12478639  0.72786958     0.15100
H192        H  0.77264418  0.12514599  0.76771030     0.15100
H193        H  0.70945533  0.99513444  0.64497438     0.13400
H194        H  0.70634470  0.05043029  0.64745674     0.13400
H195        H  0.85701519  0.99692512  0.79577732     0.13400
H196        H  0.85329881  0.05213134  0.79890474     0.13400
H197        H  0.78125137  0.99997992  0.72230817     0.26600
H198        H  0.77757355  0.04671743  0.72552459     0.26600
N199        N  0.63067499  0.71724966  0.14653691    -0.26800
N200        N  0.62695164  0.69383852  0.16105800    -0.34700
C201        C  0.60527943  0.69731076  0.17879614     0.01500
C202        C  0.59488993  0.72415534  0.17525908     0.07600
C203        C  0.61146999  0.73633238  0.15476908    -0.05500
H204        H  0.59825164  0.68180281  0.19384907     0.08200
H205        H  0.61004265  0.75760679  0.14686060     0.09400
Cu206      Cu  0.65303978  0.65914705  0.15867811     0.44200
Cu207      Cu  0.66223256  0.72228399  0.11689168     0.42000
Cu208      Cu  0.71097409  0.66362618  0.11069919     0.43900
N209        N  0.68520581  0.62990845  0.15751380    -0.34200
N210        N  0.70688520  0.63187113  0.14027000    -0.28400
C211        C  0.72545735  0.61145144  0.14645777    -0.04500
C212        C  0.71477530  0.59584554  0.16848140     0.07700
C213        C  0.68929171  0.60812007  0.17505879     0.01500
H214        H  0.74563993  0.60876514  0.13635161     0.09100
H215        H  0.67541347  0.60246791  0.19214120     0.08200
N216        N  0.71115627  0.69835767  0.08436071    -0.35600
N217        N  0.69378666  0.71995089  0.08690131    -0.27800
C218        C  0.70023862  0.73932478  0.06735380    -0.03100
C219        C  0.72256085  0.72928654  0.05174012     0.05600
C220        C  0.72903183  0.70336013  0.06307188     0.03600
H221        H  0.68978017  0.75938801  0.06498896     0.08800
H222        H  0.74594475  0.68950662  0.05679816     0.07600
N223        N  0.70485551  0.18636397  0.58524917    -0.26800
N224        N  0.68391649  0.20461079  0.58360749    -0.34700
C225        C  0.68877267  0.22237412  0.56217429     0.01500
C226        C  0.71389795  0.21485800  0.54975279     0.07600
C227        C  0.72362820  0.19207986  0.56491720    -0.05500
H228        H  0.67560211  0.24012061  0.55677926     0.08200
H229        H  0.74332792  0.18109471  0.56199476     0.09400
Cu230      Cu  0.65112756  0.20649123  0.61215166     0.44200
Cu231      Cu  0.70811298  0.15583330  0.61625156     0.42000
Cu232      Cu  0.65573333  0.15842756  0.67110341     0.43900
N233        N  0.62363296  0.20706271  0.64586948    -0.34200
N234        N  0.62543633  0.18964761  0.66746952    -0.28400
C235        C  0.60557050  0.19642868  0.68639019    -0.04500
C236        C  0.59065878  0.21916007  0.67615646     0.07700
C237        C  0.60261456  0.22542655  0.65048712     0.01500
H238        H  0.60268026  0.18607845  0.70641932     0.09100
H239        H  0.59697740  0.24250910  0.63657457     0.08200
N240        N  0.68818685  0.12925084  0.67018713    -0.35600
N241        N  0.70737537  0.12833959  0.65010833    -0.27800
C242        C  0.72600108  0.10789384  0.65605903    -0.03100
C243        C  0.71812439  0.09538027  0.68104319     0.05600
C244        C  0.69406494  0.10936956  0.68943746     0.03600
H245        H  0.74427353  0.10292667  0.64347910     0.08800
H246        H  0.68212315  0.10580807  0.70844233     0.07600
N247        N  0.19978495  0.62578055  0.67438650    -0.26800
N248        N  0.21886878  0.62573281  0.65416566    -0.34700
C249        C  0.23772877  0.60525092  0.65933060     0.01500
C250        C  0.23000939  0.59178322  0.68386543     0.07600
C251        C  0.20593736  0.60529320  0.69287511    -0.05500
H252        H  0.25600742  0.60090285  0.64653566     0.08200
H253        H  0.19418802  0.60102535  0.71185107     0.09400
Cu254      Cu  0.21921901  0.65442164  0.62127123     0.44200
Cu255      Cu  0.16703588  0.65456398  0.67708880     0.42000
Cu256      Cu  0.16107134  0.70378308  0.61985058     0.43900
N257        N  0.21519562  0.68649438  0.59196994    -0.34200
N258        N  0.19373525  0.70418368  0.59126306    -0.28400
C259        C  0.19800494  0.72317755  0.57080482    -0.04500
C260        C  0.22336134  0.71713560  0.55814408     0.07700
C261        C  0.23375732  0.69381108  0.57197326     0.01500
H262        H  0.18415655  0.74061611  0.56614497     0.09100
H263        H  0.25366813  0.68344795  0.56831065     0.08200
N264        N  0.13393968  0.70323639  0.65374305    -0.35600
N265        N  0.13647965  0.68571517  0.67516628    -0.27800
C266        C  0.11711024  0.69228828  0.69470373    -0.03100
C267        C  0.10161583  0.71484006  0.68488291     0.05600
C268        C  0.11282558  0.72129208  0.65893068     0.03600
H269        H  0.11486786  0.68184640  0.71476829     0.08800
H270        H  0.10674847  0.73844576  0.64529172     0.07600
N271        N  0.84932000  0.62610167  0.28441925    -0.26800
N272        N  0.82987321  0.62518078  0.30426528    -0.34700
C273        C  0.81073192  0.60549810  0.29749079     0.01500
C274        C  0.81852363  0.59355718  0.27220788     0.07600
C275        C  0.84302234  0.60704016  0.26444528    -0.05500
H276        H  0.79224655  0.60061786  0.30977435     0.08200
H277        H  0.85512542  0.60356024  0.24552082     0.09400
Cu278      Cu  0.82914904  0.65168297  0.33892311     0.44200
Cu279      Cu  0.88282296  0.65409232  0.28474105     0.42000
Cu280      Cu  0.88587820  0.70210751  0.34373845     0.43900
N281        N  0.83180551  0.68210891  0.37010339    -0.34200
N282        N  0.85268464  0.70038477  0.37188519    -0.28400
C283        C  0.84759075  0.71821748  0.39321936    -0.04500
C284        C  0.82232246  0.71083297  0.40541248     0.07700
C285        C  0.81284009  0.68784950  0.39029435     0.01500
H286        H  0.86080133  0.73587303  0.39881656     0.09100
H287        H  0.79320409  0.67674795  0.39314747     0.08200
N288        N  0.91427769  0.70270141  0.31070997    -0.35600
N289        N  0.91309564  0.68527675  0.28904555    -0.27800
C290        C  0.93316401  0.69238207  0.27044485    -0.03100
C291        C  0.94757990  0.71533678  0.28097433     0.05600
C292        C  0.93510659  0.72134928  0.30648343     0.03600
H293        H  0.93643240  0.68218780  0.25037372     0.08800
H294        H  0.94017098  0.73856584  0.32047713     0.07600
N295        N  0.97819811  0.77055007  0.23293043    -0.36100
N296        N  0.02165780  0.79921637  0.20039186    -0.56700
N297        N  0.06450200  0.76582199  0.22937715    -0.36100
N298        N  0.02104994  0.73735325  0.26205816    -0.56700
C299        C  0.96173638  0.78546803  0.21506424     0.27500
C300        C  0.96144756  0.75176364  0.24627927     0.27500
C301        C  0.08130360  0.78349040  0.21468983     0.27500
C302        C  0.08096599  0.75210815  0.24820167     0.27500
C303        C  0.99904356  0.81243433  0.18933756     0.36100
C304        C  0.04455221  0.80990157  0.18743352     0.36100
C305        C  0.99811005  0.72583689  0.27416562     0.36100
C306        C  0.04371602  0.72525049  0.27419704     0.36100
C307        C  0.93410522  0.77654284  0.21766874    -0.21400
C308        C  0.93392566  0.75534268  0.23723438    -0.21400
C309        C  0.10886071  0.78033068  0.22374883    -0.21400
C310        C  0.10864828  0.76063225  0.24479991    -0.21400
C311        C  0.00764859  0.83170735  0.16925736    -0.22500
C312        C  0.03641506  0.82997916  0.16792827    -0.22500
C313        C  0.00626662  0.70625203  0.29416406    -0.22500
C314        C  0.03511082  0.70591159  0.29421160    -0.22500
C315        C  0.97064985  0.80675745  0.19617967    -0.17800
C316        C  0.96989119  0.73174758  0.26677465    -0.17800
C317        C  0.07208965  0.73197250  0.26833949    -0.17800
C318        C  0.07278925  0.80269629  0.19351011    -0.17800
H319        H  0.91590423  0.78420357  0.20634466     0.15100
H320        H  0.91549565  0.74383196  0.24391681     0.15100
H321        H  0.12727719  0.79140127  0.21631314     0.15100
H322        H  0.12691186  0.75361649  0.25642616     0.15100
H323        H  0.99457274  0.84539300  0.15661968     0.13400
H324        H  0.04980341  0.84232717  0.15432292     0.13400
H325        H  0.99286211  0.69339965  0.30727720     0.13400
H326        H  0.04821941  0.69296724  0.30757692     0.13400
H327        H  0.99913365  0.77450398  0.23732980     0.26600
H328        H  0.04349171  0.76191066  0.22533059     0.26600
N329        N  0.83521433  0.91758062  0.15229039    -0.26800
N330        N  0.85289322  0.91513346  0.17365061    -0.34700
C331        C  0.84681090  0.93491734  0.19295042     0.01500
C332        C  0.82441607  0.95059599  0.18311091     0.07600
C333        C  0.81749929  0.93902479  0.15737891    -0.05500
H334        H  0.85737433  0.93720707  0.21297397     0.08200
H335        H  0.80022631  0.94507341  0.14385576     0.09400
Cu336      Cu  0.88382094  0.88440102  0.17623498     0.44200
Cu337      Cu  0.83446311  0.89057177  0.11808355     0.42000
Cu338      Cu  0.88953339  0.83821597  0.11617043     0.43900
N339        N  0.91388500  0.85289044  0.17291353    -0.34200
N340        N  0.91633902  0.83636059  0.15066703    -0.28400
C341        C  0.93733526  0.81791202  0.15516780    -0.04500
C342        C  0.94857256  0.82313949  0.18147158     0.07700
C343        C  0.93318721  0.84534090  0.19220179     0.01500
H344        H  0.94342206  0.80141290  0.14073669     0.09100
H345        H  0.93551429  0.85494882  0.21269648     0.08200
N346        N  0.85761484  0.84084514  0.08638821    -0.35600
N347        N  0.83728070  0.85980058  0.08735246    -0.27800
C348        C  0.81866741  0.85447746  0.06671228    -0.03100
C349        C  0.82784329  0.83119732  0.05197561     0.05600
C350        C  0.85251851  0.82299584  0.06500282     0.03600
H351        H  0.79936198  0.86603223  0.06335206     0.08800
H352        H  0.86511755  0.80469856  0.06010658     0.07600
N353        N  0.71017652  0.91274517  0.31376353    -0.26800
N354        N  0.68996351  0.91330436  0.29464843    -0.34700
C355        C  0.69484204  0.93450640  0.27664405     0.01500
C356        C  0.71930015  0.94780907  0.28482910     0.07600
C357        C  0.72859094  0.93349424  0.30831920    -0.05500
H358        H  0.68212306  0.93922027  0.25837596     0.08200
H359        H  0.74770001  0.93733922  0.32006236     0.09400
Cu360      Cu  0.65796515  0.88391620  0.29232832     0.44200
Cu361      Cu  0.71276597  0.88262563  0.34513966     0.42000
Cu362      Cu  0.65871405  0.82858680  0.34442066     0.43900
N363        N  0.62854831  0.85188678  0.29368093    -0.34200
N364        N  0.62858298  0.83178031  0.31287630    -0.28400
C365        C  0.60757347  0.81369586  0.30720460    -0.04500
C366        C  0.59373798  0.82296746  0.28337598     0.07700
C367        C  0.60762261  0.84710281  0.27524420     0.01500
H368        H  0.60341701  0.79461499  0.31883811     0.09100
H369        H  0.60346091  0.85969060  0.25676916     0.08200
N370        N  0.69241080  0.82904454  0.37232884    -0.35600
N371        N  0.71193091  0.84885764  0.37268196    -0.27800
C372        C  0.73106142  0.84267292  0.39259442    -0.03100
C373        C  0.72325833  0.81775880  0.40529247     0.05600
C374        C  0.69867539  0.80968199  0.39199049     0.03600
H375        H  0.74956190  0.85510662  0.39713280     0.08800
H376        H  0.68650192  0.79090569  0.39600845     0.07600
N377        N  0.77264864  0.97957368  0.23572514    -0.36100
N378        N  0.79820393  0.02298692  0.20078282    -0.56700
N379        N  0.76018926  0.06464369  0.22555979    -0.36100
N380        N  0.73467118  0.02123973  0.26050198    -0.56700
C381        C  0.78846055  0.96318355  0.21857790     0.27500
C382        C  0.75528568  0.96228629  0.25022121     0.27500
C383        C  0.77750177  0.08191663  0.21099545     0.27500
C384        C  0.74447451  0.08103197  0.24280555     0.27500
C385        C  0.81278579  0.00076662  0.19075446     0.36100
C386        C  0.80766201  0.04586191  0.18692703     0.36100
C387        C  0.72484973  0.99829925  0.27399199     0.36100
C388        C  0.71981250  0.04340474  0.27023579     0.36100
C389        C  0.78165394  0.93516624  0.22297521    -0.21400
C390        C  0.76085223  0.93460180  0.24287685    -0.21400
C391        C  0.77205494  0.10959963  0.21844894    -0.21400
C392        C  0.75132490  0.10904109  0.23844783    -0.21400
C393        C  0.83177384  0.00960869  0.17051942    -0.22500
C394        C  0.82849390  0.03814074  0.16805348    -0.22500
C395        C  0.70352041  0.00592127  0.29233429    -0.22500
C396        C  0.70032189  0.03446846  0.28994259    -0.22500
C397        C  0.80847830  0.97242354  0.19853729    -0.17800
C398        C  0.73410962  0.97041268  0.26955543    -0.17800
C399        C  0.72430722  0.07177731  0.26269303    -0.17800
C400        C  0.79842935  0.07376043  0.19140418    -0.17800
H401        H  0.79033296  0.91690808  0.21252222     0.15100
H402        H  0.75057108  0.91583557  0.25057275     0.15100
H403        H  0.78233275  0.12835379  0.21071634     0.15100
H404        H  0.74264176  0.12728865  0.24891778     0.15100
H405        H  0.84628562  0.99681874  0.15853599     0.13400
H406        H  0.84014044  0.05162631  0.15393396     0.13400
H407        H  0.69145777  0.99234413  0.30601096     0.13400
H408        H  0.68548275  0.04719998  0.30158222     0.13400
H409        H  0.77475319  0.00104491  0.23865457     0.26600
H410        H  0.75796033  0.04319839  0.22250522     0.26600
N411        N  0.33626631  0.91107658  0.65380961    -0.26800
N412        N  0.35586003  0.91095727  0.67355430    -0.34700
C413        C  0.35059933  0.93184429  0.69187499     0.01500
C414        C  0.32673960  0.94578111  0.68296999     0.07600
C415        C  0.31809627  0.93208734  0.65889750    -0.05500
H416        H  0.36277006  0.93607586  0.71063222     0.08200
H417        H  0.29945711  0.93641992  0.64658297     0.09400
Cu418      Cu  0.38827612  0.88194189  0.67510964     0.44200
Cu419      Cu  0.33391515  0.88178757  0.62190436     0.42000
Cu420      Cu  0.39137692  0.83226347  0.61741436     0.43900
N421        N  0.41931593  0.85169217  0.67101176    -0.34200
N422        N  0.42079594  0.83382509  0.64973106    -0.28400
C423        C  0.44259601  0.81628244  0.65399042    -0.04500
C424        C  0.45534067  0.82356244  0.67909486     0.07700
C425        C  0.44003443  0.84596821  0.68939418     0.01500
H426        H  0.44799723  0.79878968  0.64048396     0.09100
H427        H  0.44312296  0.85668232  0.70923103     0.08200
N428        N  0.35734411  0.83249433  0.58995736    -0.35600
N429        N  0.33618348  0.85041888  0.59204469    -0.27800
C430        C  0.31672038  0.84419421  0.57252779    -0.03100
C431        C  0.32617364  0.82138763  0.55734118     0.05600
C432        C  0.35192447  0.81437493  0.56888289     0.03600
H433        H  0.29689355  0.85506266  0.57001232     0.08800
H434        H  0.36526684  0.79691783  0.56299817     0.07600
N435        N  0.27665939  0.97606369  0.73619920    -0.36100
N436        N  0.23951251  0.01826960  0.76062905    -0.56700
N437        N  0.26454252  0.06095941  0.72405977    -0.36100
N438        N  0.30152770  0.01865081  0.69943642    -0.56700
C439        C  0.25992687  0.95913031  0.75181588     0.27500
C440        C  0.29191479  0.95924727  0.71900496     0.27500
C441        C  0.24948579  0.07768230  0.74155153     0.27500
C442        C  0.28232694  0.07784435  0.70955605     0.27500
C443        C  0.23003836  0.99576987  0.77513397     0.36100
C444        C  0.22479587  0.04072430  0.76989948     0.36100
C445        C  0.31554074  0.99605678  0.68948760     0.36100
C446        C  0.31108539  0.04113448  0.68501819     0.36100
C447        C  0.26535344  0.93126259  0.74508772    -0.21400
C448        C  0.28543022  0.93133349  0.72446663    -0.21400
C449        C  0.25724459  0.10549723  0.73746832    -0.21400
C450        C  0.27788621  0.10559705  0.71738245    -0.21400
C451        C  0.20915234  0.00398207  0.79370416    -0.22500
C452        C  0.20576623  0.03240356  0.79032841    -0.22500
C453        C  0.33414788  0.00423938  0.66861659    -0.22500
C454        C  0.33133250  0.03278737  0.66579371    -0.22500
C455        C  0.23928015  0.96774996  0.77148635    -0.17800
C456        C  0.31126169  0.96797873  0.69812900    -0.17800
C457        C  0.30277502  0.06926691  0.68964632    -0.17800
C458        C  0.22921373  0.06889384  0.76152430    -0.17800
H459        H  0.25539662  0.91268334  0.75361356     0.15100
H460        H  0.29385740  0.91280588  0.71428300     0.15100
H461        H  0.24928597  0.12389357  0.74825089     0.15100
H462        H  0.28875720  0.12408489  0.70982220     0.15100
H463        H  0.19749965  0.99088156  0.80817440     0.13400
H464        H  0.19117332  0.04548357  0.80189078     0.13400
H465        H  0.34822423  0.99102107  0.65657508     0.13400
H466        H  0.34297110  0.04589179  0.65131188     0.13400
H467        H  0.27875412  0.99763194  0.73831298     0.26600
H468        H  0.26146497  0.03961787  0.72084029     0.26600
N469        N  0.20246559  0.82609478  0.87578673    -0.26800
N470        N  0.22209016  0.84580316  0.87547618    -0.34700
C471        C  0.24057328  0.84080519  0.89633336     0.01500
C472        C  0.23198391  0.81698628  0.91052584     0.07600
C473        C  0.20788966  0.80809972  0.89691459    -0.05500
H474        H  0.25918007  0.85321900  0.90046879     0.08200
H475        H  0.19566101  0.78950215  0.90153879     0.09400
Cu476      Cu  0.22308768  0.87833957  0.84647637     0.44200
Cu477      Cu  0.16961163  0.82389461  0.84700624     0.42000
Cu478      Cu  0.16298640  0.88271689  0.79959905     0.43900
N479        N  0.21806175  0.90945581  0.81635556    -0.34200
N480        N  0.19581872  0.91145114  0.79974801    -0.28400
C481        C  0.19940343  0.93326113  0.78212814    -0.04500
C482        C  0.22509011  0.94551127  0.78797124     0.07700
C483        C  0.23645546  0.92984268  0.80963475     0.01500
H484        H  0.18499472  0.93897981  0.76547195     0.09100
H485        H  0.25694298  0.93249701  0.81917229     0.08200
N486        N  0.13523655  0.84905454  0.80006924    -0.35600
N487        N  0.13809599  0.82707555  0.81685014    -0.27800
C488        C  0.11826498  0.80793450  0.81035736    -0.03100
C489        C  0.10203759  0.81856955  0.78867770     0.05600
C490        C  0.11340048  0.84460298  0.78261855     0.03600
H491        H  0.11627028  0.78751522  0.82015448     0.08800
H492        H  0.10701630  0.85872272  0.76597428     0.07600
N493        N  0.36490543  0.70597789  0.87604503    -0.26800
N494        N  0.34740191  0.68446775  0.87804380    -0.34700
C495        C  0.32972824  0.68901239  0.89961546     0.01500
C496        C  0.33652923  0.71455033  0.91167472     0.07600
C497        C  0.35877160  0.72484160  0.89619175    -0.05500
H498        H  0.31248632  0.67534751  0.90533106     0.08200
H499        H  0.36912683  0.74492592  0.89879472     0.09400
Cu500      Cu  0.34640924  0.65130845  0.84975361     0.44200
Cu501      Cu  0.39524199  0.70965961  0.84513968     0.42000
Cu502      Cu  0.39704649  0.65412514  0.79310318     0.43900
N503        N  0.34706544  0.62292627  0.81666764    -0.34200
N504        N  0.36536733  0.62403455  0.79577857    -0.28400
C505        C  0.35875166  0.60414393  0.77671667    -0.04500
C506        C  0.33531308  0.58983915  0.78621676     0.07700
C507        C  0.32842136  0.60228121  0.81153505     0.01500
H508        H  0.36964992  0.60090484  0.75703291     0.09100
H509        H  0.31055850  0.59739923  0.82470667     0.08200
N510        N  0.42455421  0.68817825  0.79330042    -0.35600
N511        N  0.42361652  0.70855566  0.81223007    -0.27800
C512        C  0.44312196  0.72801510  0.80595320    -0.03100
C513        C  0.45702417  0.71942142  0.78199760     0.05600
C514        C  0.44478082  0.69414351  0.77445301     0.03600
H515        H  0.44656896  0.74722287  0.81766059     0.08800
H516        H  0.44974867  0.68140313  0.75627529     0.07600
N517        N  0.28550865  0.76730089  0.94146207    -0.36100
N518        N  0.31156780  0.73177138  0.98450968    -0.56700
N519        N  0.27572365  0.75788728  0.02691308    -0.36100
N520        N  0.24977281  0.79352947  0.98388307    -0.56700
C521        C  0.30040991  0.74957650  0.92486107     0.27500
C522        C  0.26773681  0.78180213  0.92451840     0.27500
C523        C  0.29265581  0.74245774  0.04388186     0.27500
C524        C  0.26042354  0.77517131  0.04360878     0.27500
C525        C  0.32565835  0.72178928  0.96198740     0.36100
C526        C  0.32178555  0.71810649  0.00721676     0.36100
C527        C  0.23962024  0.80723858  0.96116812     0.36100
C528        C  0.23610916  0.80393127  0.00648971     0.36100
C529        C  0.29263367  0.75357278  0.89702559    -0.21400
C530        C  0.27212764  0.77382128  0.89680936    -0.21400
C531        C  0.28731079  0.74939236  0.07170543    -0.21400
C532        C  0.26707903  0.76994457  0.07153546    -0.21400
C533        C  0.34501008  0.70167301  0.97043653    -0.22500
C534        C  0.34252990  0.69931317  0.99905798    -0.22500
C535        C  0.21933445  0.82649104  0.96938508    -0.22500
C536        C  0.21712457  0.82441598  0.99806961    -0.22500
C537        C  0.32066266  0.72957194  0.93375351    -0.17800
C538        C  0.24739693  0.80189740  0.93298215    -0.17800
C539        C  0.24084705  0.79587129  0.03472633    -0.17800
C540        C  0.31327645  0.72266149  0.03532453    -0.17800
H541        H  0.30052222  0.74267224  0.87867782     0.15100
H542        H  0.26135762  0.78142309  0.87825840     0.15100
H543        H  0.29733147  0.74095403  0.09031407     0.15100
H544        H  0.25861346  0.78019993  0.08999715     0.15100
H545        H  0.35928959  0.68974405  0.95733972     0.13400
H546        H  0.35467863  0.68537061  0.01232552     0.13400
H547        H  0.20722481  0.84044877  0.95609698     0.13400
H548        H  0.20312342  0.83663021  0.01120522     0.13400
H549        H  0.28870996  0.77067866  0.96273591     0.26600
H550        H  0.27353472  0.75560489  0.00540060     0.26600
N551        N  0.91256676  0.35282075  0.66118425    -0.26800
N552        N  0.91002543  0.33067589  0.64452788    -0.34700
C553        C  0.92927313  0.31130632  0.65190265     0.01500
C554        C  0.94473478  0.32186864  0.67411887     0.07600
C555        C  0.93359367  0.34816262  0.67956354    -0.05500
H556        H  0.93143306  0.29082459  0.64223050     0.08200
H557        H  0.93971296  0.36243392  0.69620062     0.09400
Cu558      Cu  0.87971189  0.32716207  0.61337933     0.44200
Cu559      Cu  0.88562626  0.38715643  0.65975537     0.42000
Cu560      Cu  0.82814809  0.38298726  0.60963152     0.43900
N561        N  0.84746977  0.32832824  0.58404783    -0.34200
N562        N  0.82875051  0.34885004  0.58256558    -0.28400
C563        C  0.81039799  0.34313010  0.56181246    -0.04500
C564        C  0.81801277  0.31784999  0.54972008     0.07700
C565        C  0.84148539  0.30893897  0.56432126     0.01500
H566        H  0.79248162  0.35605413  0.55637926     0.09100
H567        H  0.85303791  0.28959367  0.56118932     0.08200
N568        N  0.83171983  0.41418208  0.63983012    -0.35600
N569        N  0.85287578  0.41595640  0.65783055    -0.27800
C570        C  0.84803440  0.43739201  0.67563989    -0.03100
C571        C  0.82267736  0.44959067  0.66843717     0.05600
C572        C  0.81281861  0.43436627  0.64575874     0.03600
H573        H  0.86128622  0.44282202  0.69332831     0.08800
H574        H  0.79290832  0.43705213  0.63507468     0.07600
N575        N  0.97404128  0.27028944  0.72677060    -0.36100
N576        N  0.01670649  0.24170694  0.76063830    -0.56700
N577        N  0.06032395  0.27407791  0.73194815    -0.36100
N578        N  0.01769598  0.30269298  0.69807602    -0.56700
C579        C  0.95708008  0.25644293  0.74497418     0.27500
C580        C  0.95757518  0.28752035  0.71115087     0.27500
C581        C  0.07660841  0.25502452  0.74557196     0.27500
C582        C  0.07714408  0.28824450  0.71385742     0.27500
C583        C  0.99371466  0.23006471  0.77252727     0.36100
C584        C  0.03931194  0.23017708  0.77341337     0.36100
C585        C  0.99508705  0.31408142  0.68514165     0.36100
C586        C  0.04059208  0.31595360  0.68776744     0.36100
C587        C  0.92941222  0.26443943  0.74025113    -0.21400
C588        C  0.92972294  0.28393091  0.71899333    -0.21400
C589        C  0.10419706  0.25774136  0.73652455    -0.21400
C590        C  0.10453221  0.27861813  0.71663012    -0.21400
C591        C  0.00177784  0.21101958  0.79307671    -0.22500
C592        C  0.03061779  0.21102985  0.79358117    -0.22500
C593        C  0.00371788  0.33462988  0.66637040    -0.22500
C594        C  0.03248087  0.33593390  0.66816286    -0.22500
C595        C  0.96550610  0.23668407  0.76571358    -0.17800
C596        C  0.96668201  0.30694006  0.69042122    -0.17800
C597        C  0.06880791  0.30961324  0.69477956    -0.17800
C598        C  0.06769095  0.23551217  0.76631762    -0.17800
H599        H  0.91080805  0.25720994  0.75112779     0.15100
H600        H  0.91144094  0.29461666  0.71064755     0.15100
H601        H  0.12233971  0.24585918  0.74340532     0.15100
H602        H  0.12291193  0.28562055  0.70522817     0.15100
H603        H  0.98831368  0.19840022  0.80635541     0.13400
H604        H  0.04365676  0.19820055  0.80712235     0.13400
H605        H  0.99066679  0.34755402  0.65293115     0.13400
H606        H  0.04588495  0.34982540  0.65615366     0.13400
H607        H  0.99530119  0.26691290  0.72393447     0.26600
H608        H  0.03954614  0.27878895  0.73637191     0.26600
N609        N  0.90988549  0.19230048  0.79394317    -0.26800
N610        N  0.90793950  0.21420004  0.81100869    -0.34700
C611        C  0.92792920  0.23299047  0.80417255     0.01500
C612        C  0.94309150  0.22233312  0.78180054     0.07600
C613        C  0.93111997  0.19657461  0.77579608    -0.05500
H614        H  0.93071141  0.25322142  0.81420619     0.08200
H615        H  0.93684071  0.18240371  0.75894277     0.09400
Cu616      Cu  0.87733145  0.21834868  0.84189311     0.44200
Cu617      Cu  0.88224453  0.15867296  0.79446350     0.42000
Cu618      Cu  0.82563677  0.16284708  0.84548751     0.43900
N619        N  0.84523446  0.21735302  0.87148761    -0.34200
N620        N  0.82655824  0.19680656  0.87301235    -0.28400
C621        C  0.80830491  0.20251871  0.89383837    -0.04500
C622        C  0.81587310  0.22784212  0.90593794     0.07700
C623        C  0.83927304  0.23676308  0.89123410     0.01500
H624        H  0.79034910  0.18965269  0.89919814     0.09100
H625        H  0.85071119  0.25619341  0.89423888     0.08200
N626        N  0.82856690  0.13178437  0.81484275    -0.35600
N627        N  0.84934725  0.13024858  0.79644652    -0.27800
C628        C  0.84436259  0.10889913  0.77858924    -0.03100
C629        C  0.81928118  0.09640435  0.78608213     0.05600
C630        C  0.80979780  0.11136755  0.80915735     0.03600
H631        H  0.85750148  0.10351426  0.76083385     0.08800
H632        H  0.79026043  0.10826458  0.82034697     0.07600
N633        N  0.62164995  0.33839956  0.80688626    -0.26800
N634        N  0.62454204  0.35440476  0.78433387    -0.34700
C635        C  0.60483227  0.34719815  0.76534562     0.01500
C636        C  0.58876088  0.32582701  0.77663702     0.07600
C637        C  0.59999969  0.32067632  0.80289540    -0.05500
H638        H  0.60289360  0.35623307  0.74456984     0.08200
H639        H  0.59366868  0.30446447  0.81751165     0.09400
Cu640      Cu  0.65596565  0.38430993  0.77960253     0.44200
Cu641      Cu  0.64877134  0.33908306  0.84095753     0.42000
Cu642      Cu  0.70556470  0.38942419  0.83685468     0.43900
N643        N  0.68826005  0.41363311  0.78085773    -0.34200
N644        N  0.70610925  0.41574726  0.80210151    -0.28400
C645        C  0.72452057  0.43648795  0.79668192    -0.04500
C646        C  0.71792913  0.44789894  0.77081106     0.07700
C647        C  0.69491068  0.43293142  0.76127096     0.01500
H648        H  0.74176078  0.44244755  0.81028925     0.09100
H649        H  0.68400261  0.43566743  0.74149152     0.08200
N650        N  0.70229621  0.35922336  0.86813942    -0.35600
N651        N  0.68129975  0.34108213  0.86986164    -0.27800
C652        C  0.68613755  0.32341102  0.89139142    -0.03100
C653        C  0.71138998  0.33080297  0.90370286     0.05600
C654        C  0.72114566  0.35348646  0.88845124     0.03600
H655        H  0.67288893  0.30578055  0.89690798     0.08800
H656        H  0.74089309  0.36440037  0.89130920     0.07600
N657        N  0.76461781  0.28101680  0.93510631    -0.36100
N658        N  0.72826760  0.30725996  0.97716648    -0.56700
N659        N  0.75473014  0.27283699  0.02071849    -0.36100
N660        N  0.79116967  0.24665722  0.97862990    -0.56700
C661        C  0.74700472  0.29547771  0.91796290     0.27500
C662        C  0.77985561  0.26336646  0.91869242     0.27500
C663        C  0.73927744  0.29031782  0.03709971     0.27500
C664        C  0.77241196  0.25851625  0.03789888     0.27500
C665        C  0.71807554  0.32059448  0.95425841     0.36100
C666        C  0.71408788  0.31752931  0.99951290     0.36100
C667        C  0.80533147  0.23637560  0.95625636     0.36100
C668        C  0.80158643  0.23359532  0.00160584     0.36100
C669        C  0.75176600  0.28750922  0.89031096    -0.21400
C670        C  0.77238219  0.26733649  0.89076923    -0.21400
C671        C  0.74664016  0.28635421  0.06505118    -0.21400
C672        C  0.76744624  0.26637225  0.06555581    -0.21400
C673        C  0.69728245  0.33947080  0.96210578    -0.22500
C674        C  0.69472609  0.33749770  0.99073427    -0.22500
C675        C  0.82494039  0.21668244  0.96509000    -0.22500
C676        C  0.82255962  0.21490656  0.99377479    -0.22500
C677        C  0.72642265  0.31544929  0.92621405    -0.17800
C678        C  0.80020029  0.24351983  0.92783851    -0.17800
C679        C  0.79324678  0.23879981  0.02967603    -0.17800
C680        C  0.71891934  0.31009382  0.02787331    -0.17800
H681        H  0.74114892  0.29506045  0.87165071     0.15100
H682        H  0.78060580  0.25652638  0.87251614     0.15100
H683        H  0.73826266  0.29709759  0.08327523     0.15100
H684        H  0.77805696  0.25888391  0.08424623     0.15100
H685        H  0.68508411  0.35315721  0.94861897     0.13400
H686        H  0.68035112  0.34955399  0.00360873     0.13400
H687        H  0.83936585  0.20469115  0.95221228     0.13400
H688        H  0.83496605  0.20145127  0.00730590     0.13400
H689        H  0.76742017  0.28439344  0.95645185     0.26600
H690        H  0.75206220  0.26952296  0.99934564     0.26600
N691        N  0.69288644  0.41717346  0.14398154    -0.26800
N692        N  0.67657847  0.41446982  0.16630098    -0.34700
C693        C  0.68384496  0.43393983  0.18549598     0.01500
C694        C  0.70564802  0.44969112  0.17461573     0.07600
C695        C  0.71093857  0.43851699  0.14831722    -0.05500
H696        H  0.67451874  0.43594911  0.20612935     0.08200
H697        H  0.72741255  0.44467470  0.13392881     0.09400
Cu698      Cu  0.64627199  0.38346397  0.17011272     0.44200
Cu699      Cu  0.69182428  0.38960589  0.11022921     0.42000
Cu700      Cu  0.64043618  0.33327002  0.11276151     0.43900
N701        N  0.61617770  0.35205696  0.16825713    -0.34200
N702        N  0.61358269  0.33413879  0.14711616    -0.28400
C703        C  0.59227664  0.31639413  0.15264958    -0.04500
C704        C  0.58103144  0.32359577  0.17843881     0.07700
C705        C  0.59671038  0.34613361  0.18783783     0.01500
H706        H  0.58604142  0.29900966  0.13935311     0.09100
H707        H  0.59452503  0.35704132  0.20768232     0.08200
N708        N  0.67237063  0.33557077  0.08315548    -0.35600
N709        N  0.69081184  0.35636114  0.08204742    -0.27800
C710        C  0.70966767  0.35086574  0.06173641    -0.03100
C711        C  0.70277184  0.32540394  0.04960043     0.05600
C712        C  0.67910011  0.31620875  0.06363710     0.03600
H713        H  0.72765905  0.36389148  0.05690037     0.08800
H714        H  0.66809708  0.29655463  0.06047022     0.07600
N715        N  0.33137389  0.62143964  0.15878354    -0.26800
N716        N  0.34997511  0.62215398  0.17948077    -0.34700
C717        C  0.34279559  0.60293760  0.19894168     0.01500
C718        C  0.31854892  0.58963785  0.18998173     0.07600
C719        C  0.31189468  0.60181006  0.16450210    -0.05500
H720        H  0.35417716  0.59914825  0.21827577     0.08200
H721        H  0.29403299  0.59697918  0.15125159     0.09400
Cu722      Cu  0.38372359  0.64981103  0.18081188     0.44200
Cu723      Cu  0.33226277  0.64772411  0.12412447     0.42000
Cu724      Cu  0.38956856  0.69718326  0.12149392     0.43900
N725        N  0.41458504  0.68048920  0.17740529    -0.34200
N726        N  0.41700735  0.69739935  0.15547372    -0.28400
C727        C  0.43822560  0.71551166  0.16013565    -0.04500
C728        C  0.44961811  0.70973592  0.18623867     0.07700
C729        C  0.43409356  0.68752845  0.19669211     0.01500
H730        H  0.44418562  0.73235080  0.14608259     0.09100
H731        H  0.43628801  0.67775657  0.21710452     0.08200
N732        N  0.35737834  0.69598753  0.09200819    -0.35600
N733        N  0.33623059  0.67798352  0.09312202    -0.27800
C734        C  0.31781896  0.68399804  0.07249492    -0.03100
C735        C  0.32802325  0.70673334  0.05762701     0.05600
C736        C  0.35304682  0.71389930  0.07056269     0.03600
H737        H  0.29801243  0.67330409  0.06922390     0.08800
H738        H  0.36645655  0.73155257  0.06553295     0.07600
N739        N  0.61830598  0.20936956  0.30877479    -0.26800
N740        N  0.61751912  0.18969433  0.28912453    -0.34700
C741        C  0.59603185  0.19511788  0.27156462     0.01500
C742        C  0.58279968  0.21926411  0.28078427     0.07600
C743        C  0.59742797  0.22784771  0.30428867    -0.05500
H744        H  0.59105807  0.18300926  0.25295015     0.08200
H745        H  0.59377533  0.24659792  0.31665295     0.09400
Cu746      Cu  0.64668984  0.15746427  0.28610386     0.44200
Cu747      Cu  0.64846315  0.21140924  0.33982221     0.42000
Cu748      Cu  0.69843968  0.15466233  0.34231376     0.43900
N749        N  0.67863066  0.12786551  0.28811273    -0.34200
N750        N  0.69705729  0.12646237  0.30893124    -0.28400
C751        C  0.71545020  0.10566936  0.30352883    -0.04500
C752        C  0.70825481  0.09352509  0.27812944     0.07700
C753        C  0.68492456  0.10811992  0.26883148     0.01500
H754        H  0.73337614  0.10050678  0.31655688     0.09100
H755        H  0.67382760  0.10512833  0.24918944     0.08200
N756        N  0.69849017  0.18809107  0.37050338    -0.35600
N757        N  0.68032745  0.20909511  0.36910047    -0.27800
C758        C  0.68669959  0.22830567  0.38882152    -0.03100
C759        C  0.70989847  0.21886254  0.40342026     0.05600
C760        C  0.71694502  0.19335805  0.39132886     0.03600
H761        H  0.67563717  0.24794667  0.39188777     0.08800
H762        H  0.73462749  0.18008801  0.39668951     0.07600
N763        N  0.40350515  0.20720914  0.31206747    -0.26800
N764        N  0.40405394  0.18639976  0.29362541    -0.34700
C765        C  0.42416016  0.19149981  0.27447735     0.01500
C766        C  0.43678874  0.21669791  0.28130099     0.07600
C767        C  0.42327208  0.22616615  0.30517105    -0.05500
H768        H  0.42866824  0.17828430  0.25651660     0.08200
H769        H  0.42697756  0.24571815  0.31620751     0.09400
Cu770      Cu  0.37606306  0.15325857  0.29403315     0.44200
Cu771      Cu  0.37468885  0.20968000  0.34454306     0.42000
Cu772      Cu  0.32082705  0.15551546  0.34606710     0.43900
N773        N  0.34424744  0.12386849  0.29653930    -0.34200
N774        N  0.32374933  0.12484544  0.31526534    -0.28400
C775        C  0.30542225  0.10399469  0.30988586    -0.04500
C776        C  0.31507873  0.08919349  0.28684383     0.07700
C777        C  0.33962399  0.10234876  0.27881699     0.01500
H778        H  0.28605587  0.10049526  0.32125078     0.09100
H779        H  0.35248128  0.09743295  0.26072417     0.08200
N780        N  0.32304129  0.18849553  0.37445826    -0.35600
N781        N  0.34279355  0.20807007  0.37407769    -0.27800
C782        C  0.33772299  0.22675005  0.39470032    -0.03100
C783        C  0.31368441  0.21843389  0.40863522     0.05600
C784        C  0.30482563  0.19423900  0.39526971     0.03600
H785        H  0.35008166  0.24543082  0.39866724     0.08800
H786        H  0.28615370  0.18211559  0.39986249     0.07600
N787        N  0.21469865  0.84139255  0.09042753    -0.26800
N788        N  0.19549888  0.82128464  0.09093010    -0.34700
C789        C  0.20138161  0.80237606  0.07072372     0.01500
C790        C  0.22527618  0.81118625  0.05683421     0.07600
C791        C  0.23325199  0.83589165  0.06984528    -0.05500
H792        H  0.18949733  0.78337965  0.06681306     0.08200
H793        H  0.25156389  0.84853006  0.06518616     0.09400
Cu794      Cu  0.16264352  0.82010231  0.11950788     0.44200
Cu795      Cu  0.21563807  0.87477939  0.11838498     0.42000
Cu796      Cu  0.15677035  0.88060680  0.16582589     0.43900
N797        N  0.13135165  0.82477757  0.14947313    -0.34200
N798        N  0.12890893  0.84701025  0.16603603    -0.28400
C799        C  0.10705958  0.84307976  0.18354112    -0.04500
C800        C  0.09522273  0.81721196  0.17759200     0.07700
C801        C  0.11118571  0.80609867  0.15604299     0.01500
H802        H  0.10091259  0.85748039  0.20004358     0.09100
H803        H  0.10880645  0.78562953  0.14639310     0.08200
N804        N  0.18979813  0.90908246  0.16483973    -0.35600
N805        N  0.21171614  0.90650119  0.14795516    -0.27800
C806        C  0.23058340  0.92663195  0.15417197    -0.03100
C807        C  0.21984612  0.94274425  0.17580718     0.05600
C808        C  0.19403557  0.93106646  0.18213827     0.03600
H809        H  0.25095404  0.92879838  0.14432357     0.08800
H810        H  0.18001442  0.93726213  0.19892633     0.07600
N811        N  0.33178219  0.90943580  0.31117055    -0.26800
N812        N  0.35145673  0.90868932  0.29154584    -0.34700
C813        C  0.34622870  0.92895673  0.27251053     0.01500
C814        C  0.32224927  0.94314077  0.28070377     0.07600
C815        C  0.31358830  0.93025223  0.30521293    -0.05500
H816        H  0.35851889  0.93259578  0.25374592     0.08200
H817        H  0.29495685  0.93506463  0.31731530     0.09400
Cu818      Cu  0.38365075  0.87923256  0.29069487     0.44200
Cu819      Cu  0.32941339  0.88114362  0.34426540     0.42000
Cu820      Cu  0.38489124  0.82911917  0.34761782     0.43900
N821        N  0.41315209  0.84727340  0.29419189    -0.34200
N822        N  0.41346486  0.82886576  0.31501019    -0.28400
C823        C  0.43415085  0.81012025  0.31057891    -0.04500
C824        C  0.44753006  0.81724207  0.28589001     0.07700
C825        C  0.43375086  0.84080472  0.27596545     0.01500
H826        H  0.43864897  0.79228687  0.32395308     0.09100
H827        H  0.43787041  0.85191491  0.25657114     0.08200
N828        N  0.35275026  0.83191675  0.37658244    -0.35600
N829        N  0.33220269  0.85061481  0.37527830    -0.27800
C830        C  0.31372734  0.84536871  0.39600883    -0.03100
C831        C  0.32329890  0.82237343  0.41097812     0.05600
C832        C  0.34798912  0.81433480  0.39813525     0.03600
H833        H  0.29428914  0.85672107  0.39926272     0.08800
H834        H  0.36089917  0.79633097  0.40330508     0.07600
N835        N  0.26205674  0.05862345  0.23653885    -0.36100
N836        N  0.29827616  0.01605296  0.26236893    -0.56700
N837        N  0.27229469  0.97322627  0.22686412    -0.36100
N838        N  0.23612088  0.01578504  0.20100784    -0.56700
C839        C  0.27922422  0.07554059  0.25173641     0.27500
C840        C  0.24640217  0.07538066  0.21961377     0.27500
C841        C  0.28678731  0.95653397  0.24488691     0.27500
C842        C  0.25457940  0.95641277  0.21215113     0.27500
C843        C  0.30873586  0.03882560  0.27573223     0.36100
C844        C  0.31251356  0.99355758  0.27225172     0.36100
C845        C  0.22221042  0.03833744  0.19078315     0.36100
C846        C  0.22649698  0.99316698  0.18677356     0.36100
C847        C  0.27374925  0.10339788  0.24496754    -0.21400
C848        C  0.25312694  0.10329189  0.22479060    -0.21400
C849        C  0.27874766  0.92877831  0.24091198    -0.21400
C850        C  0.25853245  0.92869968  0.22033859    -0.21400
C851        C  0.32982980  0.03074355  0.29420163    -0.22500
C852        C  0.33221883  0.00208473  0.29199492    -0.22500
C853        C  0.20356325  0.02996663  0.16996116    -0.22500
C854        C  0.20633522  0.00139202  0.16736997    -0.22500
C855        C  0.30009318  0.06691287  0.27124384    -0.17800
C856        C  0.22657281  0.06652820  0.19915455    -0.17800
C857        C  0.23462267  0.96502182  0.19171601    -0.17800
C858        C  0.30708498  0.96527742  0.26493805    -0.17800
H859        H  0.28389974  0.12199224  0.25329560     0.15100
H860        H  0.24447360  0.12176715  0.21471126     0.15100
H861        H  0.28635383  0.91039367  0.25194828     0.15100
H862        H  0.24761738  0.91025304  0.21268020     0.15100
H863        H  0.34223206  0.04408200  0.30786852     0.13400
H864        H  0.34664219  0.98901231  0.30379469     0.13400
H865        H  0.18951046  0.04307220  0.15776010     0.13400
H866        H  0.19465654  0.98817892  0.15296574     0.13400
H867        H  0.25999158  0.03710383  0.23880016     0.26600
H868        H  0.27574133  0.99443398  0.22331231     0.26600
N869        N  0.32774629  0.19198534  0.58819593    -0.26800
N870        N  0.34802915  0.21099225  0.58863651    -0.34700
C871        C  0.34316840  0.23018240  0.56846533     0.01500
C872        C  0.31872547  0.22274562  0.55470760     0.07600
C873        C  0.30942748  0.19852552  0.56768359    -0.05500
H874        H  0.35604868  0.24851557  0.56460288     0.08200
H875        H  0.29037867  0.18697848  0.56308064     0.09400
Cu876      Cu  0.38047417  0.21076208  0.61752276     0.44200
Cu877      Cu  0.32508570  0.15886339  0.61635690     0.42000
Cu878      Cu  0.38234237  0.15237761  0.66633745     0.43900
N879        N  0.41032310  0.20631085  0.64876413    -0.34200
N880        N  0.41108330  0.18504596  0.66664896    -0.28400
C881        C  0.43182532  0.18948199  0.68537045    -0.04500
C882        C  0.44465308  0.21464140  0.67874785     0.07700
C883        C  0.43058427  0.22479078  0.65551093     0.01500
H884        H  0.43654326  0.17593761  0.70301644     0.09100
H885        H  0.43409724  0.24462142  0.64496495     0.08200
N886        N  0.34881105  0.12472381  0.66417797    -0.35600
N887        N  0.32753936  0.12742942  0.64644283    -0.27800
C888        C  0.30824471  0.10754536  0.65209514    -0.03100
C889        C  0.31805461  0.09151619  0.67424811     0.05600
C890        C  0.34373918  0.10296038  0.68144204     0.03600
H891        H  0.28825447  0.10543173  0.64143191     0.08800
H892        H  0.35716675  0.09669743  0.69870883     0.07600
N893        N  0.19238471  0.41168080  0.67766386    -0.26800
N894        N  0.21136098  0.41298902  0.65739776    -0.34700
C895        C  0.22991955  0.43345623  0.66349856     0.01500
C896        C  0.22225626  0.44551233  0.68879613     0.07600
C897        C  0.19847306  0.43117555  0.69729374    -0.05500
H898        H  0.24802220  0.43872484  0.65081514     0.08200
H899        H  0.18670621  0.43440694  0.71647301     0.09400
Cu900      Cu  0.21203204  0.38592744  0.62308123     0.44200
Cu901      Cu  0.15932948  0.38315019  0.67780263     0.42000
Cu902      Cu  0.15290378  0.33787559  0.61699327     0.43900
N903        N  0.20816623  0.35594139  0.59151197    -0.34200
N904        N  0.18625420  0.33899266  0.58893308    -0.28400
C905        C  0.19059469  0.32147719  0.56715622    -0.04500
C906        C  0.21646399  0.32765412  0.55558005     0.07700
C907        C  0.22714106  0.34947581  0.57155387     0.01500
H908        H  0.17655289  0.30466801  0.56100598     0.09100
H909        H  0.24751659  0.35932772  0.56937008     0.08200
N910        N  0.12490063  0.33730147  0.65044038    -0.35600
N911        N  0.12758551  0.35357354  0.67285392    -0.27800
C912        C  0.10749620  0.34686843  0.69155590    -0.03100
C913        C  0.09133388  0.32550513  0.68030450     0.05600
C914        C  0.10295855  0.31984133  0.65427322     0.03600
H915        H  0.10532079  0.35627602  0.71215185     0.08800
H916        H  0.09663110  0.30353249  0.63971522     0.07600
N917        N  0.17892916  0.40848526  0.29406582    -0.26800
N918        N  0.19727270  0.40929616  0.31495191    -0.34700
C919        C  0.21552283  0.43037993  0.31048919     0.01500
C920        C  0.20822984  0.44340784  0.28562201     0.07600
C921        C  0.18507491  0.42899659  0.27563101    -0.05500
H922        H  0.23335499  0.43518256  0.32378831     0.08200
H923        H  0.17402695  0.43263335  0.25607670     0.09400
Cu924      Cu  0.19798790  0.38040164  0.34729988     0.44200
Cu925      Cu  0.14735852  0.37863870  0.29118107     0.42000
Cu926      Cu  0.14493193  0.32602940  0.34664991     0.43900
N927        N  0.19613988  0.34816761  0.37626098    -0.34200
N928        N  0.17691037  0.32809823  0.37599872    -0.28400
C929        C  0.18283721  0.30941029  0.39636117    -0.04500
C930        C  0.20682678  0.31838057  0.41002741     0.07700
C931        C  0.21476511  0.34290591  0.39681719     0.01500
H932        H  0.17111560  0.29033089  0.40030025     0.09100
H933        H  0.23327564  0.35540543  0.40111853     0.08200
N934        N  0.11676163  0.32779621  0.31361596    -0.35600
N935        N  0.11780111  0.34674395  0.29329714    -0.27800
C936        C  0.09755356  0.34109771  0.27439352    -0.03100
C937        C  0.08315772  0.31759209  0.28337046     0.05600
C938        C  0.09580761  0.30961790  0.30822764     0.03600
H939        H  0.09408829  0.35275178  0.25517834     0.08800
H940        H  0.09078509  0.29145655  0.32094069     0.07600
N941        N  0.90306929  0.21116742  0.14458118    -0.26800
N942        N  0.90481465  0.18978625  0.16226528    -0.34700
C943        C  0.92601097  0.19440071  0.18037243     0.01500
C944        C  0.93806278  0.21990160  0.17376057     0.07600
C945        C  0.92306761  0.23007612  0.15107864    -0.05500
H946        H  0.93140395  0.18083333  0.19780822     0.08200
H947        H  0.92586595  0.25010228  0.14068828     0.09400
Cu948      Cu  0.87646412  0.15697628  0.16350892     0.44200
Cu949      Cu  0.87238227  0.21465708  0.11379542     0.42000
Cu950      Cu  0.81782044  0.16181228  0.11558413     0.43900
N951        N  0.84300459  0.12935604  0.16377399    -0.34200
N952        N  0.82125070  0.13138310  0.14655895    -0.28400
C953        C  0.80230088  0.11153661  0.15329402    -0.04500
C954        C  0.81281707  0.09630646  0.17566435     0.07700
C955        C  0.83858494  0.10812323  0.18185647     0.01500
H956        H  0.78216326  0.10878020  0.14306733     0.09100
H957        H  0.85264847  0.10230604  0.19877283     0.08200
N958        N  0.81884272  0.19434735  0.08663249    -0.35600
N959        N  0.83892870  0.21355514  0.08583053    -0.27800
C960        C  0.83328703  0.23188946  0.06505878    -0.03100
C961        C  0.80849562  0.22376962  0.05226310     0.05600
C962        C  0.79981250  0.19999744  0.06646409     0.03600
H963        H  0.84593077  0.25010803  0.06005901     0.08800
H964        H  0.78086914  0.18797654  0.06272424     0.07600
N965        N  0.84110253  0.41345253  0.28679537    -0.26800
N966        N  0.82093543  0.41319318  0.30592773    -0.34700
C967        C  0.80232852  0.43365365  0.29996411     0.01500
C968        C  0.81139763  0.44746036  0.27611786     0.07600
C969        C  0.83595481  0.43415222  0.26824640    -0.05500
H970        H  0.78335682  0.43781166  0.31177529     0.08200
H971        H  0.84870353  0.43866526  0.24998423     0.09400
Cu972      Cu  0.81902576  0.38448969  0.33873950     0.44200
Cu973      Cu  0.87380210  0.38470200  0.28553563     0.42000
Cu974      Cu  0.87586467  0.33371832  0.34154765     0.43900
N975        N  0.82184470  0.35286275  0.36870094    -0.34200
N976        N  0.84280677  0.33460876  0.36991664    -0.28400
C977        C  0.83790170  0.31627021  0.39085884    -0.04500
C978        C  0.81268808  0.32336481  0.40337822     0.07700
C979        C  0.80298903  0.34654968  0.38879873     0.01500
H980        H  0.85118725  0.29851847  0.39594288     0.09100
H981        H  0.78334680  0.35753942  0.39206499     0.08200
N982        N  0.90414102  0.33413607  0.30843197    -0.35600
N983        N  0.90320419  0.35264154  0.28771617    -0.27800
C984        C  0.92307217  0.34616852  0.26867803    -0.03100
C985        C  0.93715420  0.32255432  0.27800139     0.05600
C986        C  0.92467964  0.31541993  0.30319385     0.03600
H987        H  0.92654579  0.35739204  0.24921962     0.08800
H988        H  0.92958056  0.29748437  0.31628516     0.07600
N989        N  0.05340303  0.26638467  0.23126199    -0.36100
N990        N  0.01068592  0.23725117  0.19867176    -0.56700
N991        N  0.96750715  0.27158036  0.22572786    -0.36100
N992        N  0.01014721  0.29891652  0.26012843    -0.56700
C993        C  0.06954296  0.24643452  0.21895088     0.27500
C994        C  0.06932414  0.27933585  0.25096507     0.27500
C995        C  0.95119652  0.25284161  0.21184444     0.27500
C996        C  0.95091024  0.28501205  0.24455009     0.27500
C997        C  0.03365105  0.22608806  0.18625363     0.36100
C998        C  0.98830537  0.22879084  0.18337779     0.36100
C999        C  0.03300860  0.31180971  0.27097860     0.36100
C1000       C  0.98758722  0.31381592  0.26879979     0.36100
C1001       C  0.09622724  0.24702751  0.23075458    -0.21400
C1002       C  0.09608765  0.26772813  0.25089733    -0.21400
C1003       C  0.92377770  0.25481206  0.22156629    -0.21400
C1004       C  0.92360227  0.27506592  0.24217073    -0.21400
C1005       C  0.02574644  0.20999494  0.16323374    -0.22500
C1006       C  0.99702235  0.21174100  0.16139256    -0.22500
C1007       C  0.02488707  0.33475278  0.28706322    -0.22500
C1008       C  0.99610129  0.33599930  0.28570858    -0.22500
C1009       C  0.06151404  0.22895083  0.19618078    -0.17800
C1010       C  0.06100690  0.30240915  0.26786327    -0.17800
C1011       C  0.95933292  0.30680701  0.26302221    -0.17800
C1012       C  0.95998871  0.23473086  0.18991154    -0.17800
H1013       H  0.11419824  0.23425134  0.22518961     0.15100
H1014       H  0.11389918  0.27375825  0.26371910     0.15100
H1015       H  0.90567885  0.24293991  0.21453275     0.15100
H1016       H  0.90534453  0.28175229  0.25396922     0.15100
H1017       H  0.03919600  0.19797435  0.14937012     0.13400
H1018       H  0.98402747  0.20135232  0.14584257     0.13400
H1019       H  0.03825918  0.34892863  0.29883824     0.13400
H1020       H  0.98295006  0.35133737  0.29618480     0.13400
H1021       H  0.03383441  0.27296823  0.22446899     0.26600
H1022       H  0.98793594  0.27696919  0.22052998     0.26600
N1023       N  0.18569230  0.62352917  0.30283938    -0.26800
N1024       N  0.20508382  0.62345309  0.32278428    -0.34700
C1025       C  0.22367801  0.60279556  0.31753368     0.01500
C1026       C  0.21548969  0.58935478  0.29311590     0.07600
C1027       C  0.19139027  0.60293766  0.28435407    -0.05500
H1028       H  0.24232963  0.59863749  0.32988908     0.08200
H1029       H  0.17951871  0.59888136  0.26536655     0.09400
Cu1030     Cu  0.20706630  0.65340395  0.35421127     0.44200
Cu1031     Cu  0.15414287  0.65336926  0.29970410     0.42000
Cu1032     Cu  0.15746912  0.71163002  0.34780743     0.43900
N1033       N  0.20685031  0.68815602  0.38030567    -0.34200
N1034       N  0.18913306  0.70948492  0.37789221    -0.28400
C1035       C  0.19588866  0.72920137  0.39704798    -0.04500
C1036       C  0.21887360  0.71969642  0.41208301     0.07700
C1037       C  0.22528836  0.69368655  0.40100246     0.01500
H1038       H  0.18531632  0.74920716  0.39939326     0.09100
H1039       H  0.24255364  0.68013354  0.40699079     0.08200
N1040       N  0.12807167  0.70878999  0.31555204    -0.35600
N1041       N  0.12673162  0.68716472  0.29810763    -0.27800
C1042       C  0.10623604  0.69176243  0.27914962    -0.03100
C1043       C  0.09411827  0.71750043  0.28497402     0.05600
C1044       C  0.10844367  0.72779496  0.30812350     0.03600
H1045       H  0.10104970  0.67776586  0.26197085     0.08800
H1046       H  0.10526053  0.74785458  0.31837793     0.07600
N1047       N  0.19732635  0.18018002  0.08987624    -0.26800
N1048       N  0.17778051  0.19995395  0.08991307    -0.34700
C1049       C  0.18363215  0.21881172  0.06973446     0.01500
C1050       C  0.20794598  0.21037236  0.05639987     0.07600
C1051       C  0.21614644  0.18585610  0.06959390    -0.05500
H1052       H  0.17151563  0.23761275  0.06558410     0.08200
H1053       H  0.23482081  0.17357820  0.06537228     0.09400
Cu1054     Cu  0.14537884  0.20161790  0.11875379     0.44200
Cu1055     Cu  0.19883840  0.14803628  0.11912078     0.42000
Cu1056     Cu  0.14741571  0.15079087  0.17548296     0.43900
N1057       N  0.11713397  0.20113576  0.15172588    -0.34200
N1058       N  0.11786369  0.18271883  0.17253466    -0.28400
C1059       C  0.09770909  0.18924477  0.19124957    -0.04500
C1060       C  0.08376897  0.21286678  0.18166139     0.07700
C1061       C  0.09655177  0.21986178  0.15661096     0.01500
H1062       H  0.09402884  0.17814930  0.21074197     0.09100
H1063       H  0.09181198  0.23772022  0.14335276     0.08200
N1064       N  0.18013533  0.12200634  0.17381151    -0.35600
N1065       N  0.19854038  0.12078247  0.15301515    -0.27800
C1066       C  0.21746152  0.10053730  0.15857660    -0.03100
C1067       C  0.21063251  0.08855255  0.18407571     0.05600
C1068       C  0.18695161  0.10262391  0.19325120     0.03600
H1069       H  0.23528383  0.09544447  0.14541638     0.08800
H1070       H  0.17581507  0.09936870  0.21279145     0.07600
N1071       N  0.31750741  0.40925779  0.15077132    -0.26800
N1072       N  0.33881305  0.41041205  0.16864183    -0.34700
C1073       C  0.33445162  0.43147268  0.18696087     0.01500
C1074       C  0.30922919  0.44411435  0.18027921     0.07600
C1075       C  0.29891401  0.42954066  0.15735669    -0.05500
H1076       H  0.34805283  0.43646018  0.20451477     0.08200
H1077       H  0.27902942  0.43286847  0.14680810     0.09400
Cu1078     Cu  0.37164090  0.38195848  0.16935343     0.44200
Cu1079     Cu  0.31401813  0.37923932  0.11926212     0.42000
Cu1080     Cu  0.36953981  0.32699693  0.11765590     0.43900
N1081       N  0.40065966  0.34965520  0.16770349    -0.34200
N1082       N  0.39964671  0.32927484  0.14882053    -0.28400
C1083       C  0.42011427  0.31058048  0.15424949    -0.04500
C1084       C  0.43473343  0.31981744  0.17754044     0.07700
C1085       C  0.42189571  0.34456279  0.18566556     0.01500
H1086       H  0.42356237  0.29132975  0.14262126     0.09100
H1087       H  0.42695526  0.35734008  0.20380571     0.08200
N1088       N  0.33688020  0.32838220  0.08910141    -0.35600
N1089       N  0.31638413  0.34717529  0.08971242    -0.27800
C1090       C  0.29785713  0.34118911  0.06915798    -0.03100
C1091       C  0.30738284  0.31767981  0.05497366     0.05600
C1092       C  0.33205508  0.31003519  0.06816548     0.03600
H1093       H  0.27853283  0.35257519  0.06536264     0.08800
H1094       H  0.34498662  0.29189317  0.06356472     0.07600
N1095       N  0.17983146  0.19810504  0.87586766    -0.26800
N1096       N  0.19968958  0.17867616  0.87460541    -0.34700
C1097       C  0.21839766  0.18313585  0.89532979     0.01500
C1098       C  0.20976999  0.20636917  0.91039191     0.07600
C1099       C  0.18533690  0.21543285  0.89753811    -0.05500
H1100       H  0.23753055  0.17120397  0.89834719     0.08200
H1101       H  0.17333267  0.23407960  0.90260926     0.09400
Cu1102     Cu  0.20227699  0.14888980  0.84313284     0.44200
Cu1103     Cu  0.14827673  0.20234939  0.84600286     0.42000
Cu1104     Cu  0.15217707  0.15529239  0.78614323     0.43900
N1105       N  0.20196264  0.12290144  0.80835115    -0.34200
N1106       N  0.18407331  0.12540496  0.78718720    -0.28400
C1107       C  0.19062874  0.10629095  0.76734655    -0.04500
C1108       C  0.21352370  0.09102124  0.77674174     0.07700
C1109       C  0.22019766  0.10208173  0.80271518     0.01500
H1110       H  0.17981814  0.10395619  0.74746012     0.09100
H1111       H  0.23747198  0.09594068  0.81619374     0.08200
N1112       N  0.12302420  0.18767619  0.78967978    -0.35600
N1113       N  0.12143523  0.20469133  0.81164511    -0.27800
C1114       C  0.10118989  0.22391669  0.80698548    -0.03100
C1115       C  0.08958478  0.21874368  0.78084767     0.05600
C1116       C  0.10385486  0.19565406  0.77044234     0.03600
H1117       H  0.09581004  0.24081594  0.82123758     0.08800
H1118       H  0.10094173  0.18578546  0.75014822     0.07600
N1119       N  0.34332319  0.31876405  0.87437114    -0.26800
N1120       N  0.32573494  0.34021936  0.87655507    -0.34700
C1121       C  0.30746988  0.33510147  0.89748289     0.01500
C1122       C  0.31391731  0.30923406  0.90894311     0.07600
C1123       C  0.33661556  0.29935051  0.89378929    -0.05500
H1124       H  0.29045841  0.34892634  0.90355226     0.08200
H1125       H  0.34728947  0.27944564  0.89650061     0.09400
Cu1126     Cu  0.32650701  0.37511211  0.85051840     0.44200
Cu1127     Cu  0.37566338  0.31671799  0.84515824     0.42000
Cu1128     Cu  0.38419553  0.37843286  0.80153824     0.43900
N1129       N  0.33147321  0.40716721  0.82147245    -0.34200
N1130       N  0.35285462  0.40857892  0.80379596    -0.28400
C1131       C  0.34918931  0.43076283  0.78666840    -0.04500
C1132       C  0.32435495  0.44391149  0.79400520     0.07700
C1133       C  0.31355614  0.42835875  0.81600005     0.01500
H1134       H  0.36278435  0.43603262  0.76923933     0.09100
H1135       H  0.29358787  0.43147531  0.82640539     0.08200
N1136       N  0.41063889  0.34388325  0.79993288    -0.35600
N1137       N  0.40726465  0.32102453  0.81538375    -0.27800
C1138       C  0.42674485  0.30189939  0.80790430    -0.03100
C1139       C  0.44317947  0.31345386  0.78692977     0.05600
C1140       C  0.43237679  0.33999946  0.78232448     0.03600
H1141       H  0.42842955  0.28096481  0.81662300     0.08800
H1142       H  0.43919297  0.35499733  0.76666977     0.07600
N1143       N  0.25626198  0.26485762  0.02557149    -0.36100
N1144       N  0.28982713  0.29242547  0.98224614    -0.56700
N1145       N  0.26380521  0.25633588  0.93983023    -0.36100
N1146       N  0.23007868  0.22896786  0.98314303    -0.56700
C1147       C  0.27373593  0.28020499  0.04203478     0.27500
C1148       C  0.24288063  0.24629369  0.04249833     0.27500
C1149       C  0.27858663  0.27371092  0.92282586     0.27500
C1150       C  0.24605893  0.24136630  0.92328786     0.27500
C1151       C  0.29948813  0.30696257  0.00467575     0.36100
C1152       C  0.30297449  0.30297395  0.95941838     0.36100
C1153       C  0.21741234  0.21798092  0.00599262     0.36100
C1154       C  0.21928367  0.21547758  0.96061203     0.36100
C1155       C  0.27077850  0.27180384  0.06980868    -0.21400
C1156       C  0.25139187  0.25047324  0.07009099    -0.21400
C1157       C  0.27082166  0.26898237  0.89509596    -0.21400
C1158       C  0.25032878  0.24871533  0.89539009    -0.21400
C1159       C  0.31885186  0.32693919  0.99604299    -0.22500
C1160       C  0.32113855  0.32434551  0.96742191    -0.22500
C1161       C  0.19856853  0.19722585  0.99795418    -0.22500
C1162       C  0.19974482  0.19565136  0.96920879    -0.22500
C1163       C  0.29243476  0.30155028  0.03301317    -0.17800
C1164       C  0.22310269  0.22565232  0.03409765    -0.17800
C1165       C  0.22591524  0.22134000  0.93230238    -0.17800
C1166       C  0.29837121  0.29433379  0.93132095    -0.17800
H1167       H  0.28171808  0.27990545  0.08805868     0.15100
H1168       H  0.24462021  0.23910440  0.08857912     0.15100
H1169       H  0.27860632  0.27950633  0.87650762     0.15100
H1170       H  0.23954179  0.24063010  0.87704224     0.15100
H1171       H  0.33043069  0.34162263  0.00903589     0.13400
H1172       H  0.33458200  0.33688584  0.95405114     0.13400
H1173       H  0.18539941  0.18445168  0.01138081     0.13400
H1174       H  0.18750097  0.18158555  0.95614258     0.13400
H1175       H  0.25209031  0.26837362  0.00448775     0.26600
H1176       H  0.26690234  0.25366847  0.96119225     0.26600
N1177       N  0.26601731  0.55941862  0.24058311    -0.36100
N1178       N  0.29311837  0.51668131  0.20631407    -0.56700
N1179       N  0.25873704  0.47364536  0.23322250    -0.36100
N1180       N  0.23324346  0.51627240  0.26909633    -0.56700
C1181       C  0.28606414  0.57532082  0.22819307     0.27500
C1182       C  0.25387137  0.57520093  0.26087853     0.27500
C1183       C  0.27693803  0.45721932  0.21882336     0.27500
C1184       C  0.24547623  0.45701683  0.25206727     0.27500
C1185       C  0.30427065  0.53969760  0.19397718     0.36100
C1186       C  0.30068323  0.49441680  0.19036904     0.36100
C1187       C  0.22075583  0.53922091  0.28026289     0.36100
C1188       C  0.21785186  0.49386982  0.27729979     0.36100
C1189       C  0.28645462  0.60172138  0.24064584    -0.21400
C1190       C  0.26616789  0.60165411  0.26119945    -0.21400
C1191       C  0.27476113  0.42969298  0.22822558    -0.21400
C1192       C  0.25493846  0.42956805  0.24918035    -0.21400
C1193       C  0.31938693  0.53190323  0.17029644    -0.22500
C1194       C  0.31709669  0.50324349  0.16801457    -0.22500
C1195       C  0.19762142  0.53127218  0.29609097    -0.22500
C1196       C  0.19582994  0.50253981  0.29426507    -0.22500
C1197       C  0.30250805  0.56742557  0.20464229    -0.17800
C1198       C  0.23068914  0.56710882  0.27769662    -0.17800
C1199       C  0.22418026  0.46557242  0.27094816    -0.17800
C1200       C  0.29469616  0.46605175  0.19669971    -0.17800
H1201       H  0.29951381  0.61950050  0.23516227     0.15100
H1202       H  0.26079917  0.61934110  0.27446681     0.15100
H1203       H  0.28619132  0.41149147  0.22074409     0.15100
H1204       H  0.24821525  0.41125745  0.26086713     0.15100
H1205       H  0.33124955  0.54534505  0.15632863     0.13400
H1206       H  0.32677254  0.49034276  0.15195737     0.13400
H1207       H  0.18366650  0.54471220  0.30802114     0.13400
H1208       H  0.18019494  0.48951757  0.30441104     0.13400
H1209       H  0.25868478  0.54025705  0.23337350     0.26600
H1210       H  0.25352409  0.49423739  0.22840734     0.26600
N1211       N  0.55178956  0.27334846  0.23214804    -0.36100
N1212       N  0.50826483  0.30093296  0.19893666    -0.56700
N1213       N  0.46576392  0.26666747  0.22721752    -0.36100
N1214       N  0.50932672  0.23885754  0.26019960    -0.56700
C1215       C  0.56817098  0.28786797  0.21395181     0.27500
C1216       C  0.56871754  0.25512726  0.24602196     0.27500
C1217       C  0.44876137  0.28442074  0.21285743     0.27500
C1218       C  0.44936560  0.25193030  0.24520675     0.27500
C1219       C  0.53072716  0.31409648  0.18767265     0.36100
C1220       C  0.48526561  0.31184236  0.18636872     0.36100
C1221       C  0.53230177  0.22779449  0.27263526     0.36100
C1222       C  0.48688288  0.22562336  0.27137383     0.36100
C1223       C  0.59591360  0.27941562  0.21705180    -0.21400
C1224       C  0.59626349  0.25885779  0.23721618    -0.21400
C1225       C  0.42112499  0.28017874  0.22115227    -0.21400
C1226       C  0.42150615  0.25975208  0.24148133    -0.21400
C1227       C  0.52195147  0.33353003  0.16780612    -0.22500
C1228       C  0.49317104  0.33208093  0.16695284    -0.22500
C1229       C  0.52442566  0.20736030  0.29185506    -0.22500
C1230       C  0.49565570  0.20597914  0.29105051    -0.22500
C1231       C  0.55911189  0.30829141  0.19424300    -0.17800
C1232       C  0.56036719  0.23494348  0.26624987    -0.17800
C1233       C  0.45851519  0.23165488  0.26503452    -0.17800
C1234       C  0.45715518  0.30455934  0.19258595    -0.17800
H1235       H  0.61407958  0.28688205  0.20560443     0.15100
H1236       H  0.61477036  0.24760304  0.24419991     0.15100
H1237       H  0.40252888  0.29094569  0.21364904     0.15100
H1238       H  0.40325449  0.25183190  0.25247883     0.15100
H1239       H  0.53491607  0.34722813  0.15511123     0.13400
H1240       H  0.47962811  0.34462095  0.15363232     0.13400
H1241       H  0.53798168  0.19462246  0.30497416     0.13400
H1242       H  0.48270046  0.19217530  0.30364263     0.13400
H1243       H  0.53074962  0.27701155  0.23627828     0.26600
H1244       H  0.48695553  0.26349487  0.22358794     0.26600
N1245       N  0.25957179  0.26729313  0.43951293    -0.36100
N1246       N  0.23228736  0.30168283  0.48266927    -0.56700
N1247       N  0.26903991  0.27682494  0.52492643    -0.36100
N1248       N  0.29606603  0.24215577  0.48180964    -0.56700
C1249       C  0.24363929  0.28407976  0.42293244     0.27500
C1250       C  0.27760560  0.25325653  0.42250351     0.27500
C1251       C  0.25153997  0.29162802  0.54186060     0.27500
C1252       C  0.28380019  0.25898341  0.54153978     0.27500
C1253       C  0.21779475  0.31116037  0.46017079     0.36100
C1254       C  0.22234172  0.31575876  0.50523995     0.36100
C1255       C  0.30680379  0.22898186  0.45907762     0.36100
C1256       C  0.30974828  0.23182039  0.50441588     0.36100
C1257       C  0.25107161  0.27996570  0.39502142    -0.21400
C1258       C  0.27244279  0.26061724  0.39475950    -0.21400
C1259       C  0.25595129  0.28374355  0.56958060    -0.21400
C1260       C  0.27617778  0.26319950  0.56937951    -0.21400
C1261       C  0.19836751  0.33124110  0.46853492    -0.22500
C1262       C  0.20133169  0.33423628  0.49704116    -0.22500
C1263       C  0.32760432  0.21026315  0.46726181    -0.22500
C1264       C  0.32944604  0.21203155  0.49598153    -0.22500
C1265       C  0.22277597  0.30335190  0.43195346    -0.17800
C1266       C  0.29865423  0.23393027  0.43095812    -0.17800
C1267       C  0.30393808  0.23884784  0.53267462    -0.17800
C1268       C  0.23114624  0.31162661  0.53331158    -0.17800
H1269       H  0.24231534  0.29013792  0.37664627     0.15100
H1270       H  0.28317522  0.25311122  0.37615990     0.15100
H1271       H  0.24525128  0.29149371  0.58809783     0.15100
H1272       H  0.28407477  0.25234963  0.58775381     0.15100
H1273       H  0.18383670  0.34286713  0.45542426     0.13400
H1274       H  0.18929386  0.34836209  0.51020650     0.13400
H1275       H  0.34014323  0.19671231  0.45395698     0.13400
H1276       H  0.34353593  0.19993660  0.50914686     0.13400
H1277       H  0.25689679  0.26417437  0.46087217     0.26600
H1278       H  0.27208210  0.28007818  0.50362464     0.26600
N1279       N  0.27229687  0.77147497  0.52781665    -0.36100
N1280       N  0.24140299  0.74002104  0.48495358    -0.56700
N1281       N  0.27306856  0.76944584  0.44151384    -0.36100
N1282       N  0.30411398  0.80079756  0.48436766    -0.56700
C1283       C  0.25869037  0.75281138  0.54444231     0.27500
C1284       C  0.29121155  0.78518008  0.54414398     0.27500
C1285       C  0.25442862  0.75547566  0.42509343     0.27500
C1286       C  0.28726497  0.78753858  0.42477239     0.27500
C1287       C  0.22951249  0.72828602  0.50785611     0.36100
C1288       C  0.22907718  0.72807521  0.46232805     0.36100
C1289       C  0.31607108  0.81309855  0.50700234     0.36100
C1290       C  0.31575767  0.81278623  0.46145976     0.36100
C1291       C  0.26852336  0.75536194  0.57180840    -0.21400
C1292       C  0.28896520  0.77569639  0.57161387    -0.21400
C1293       C  0.25747723  0.76420205  0.39744787    -0.21400
C1294       C  0.27809742  0.78434709  0.39724326    -0.21400
C1295       C  0.20937424  0.70881290  0.49972818    -0.22500
C1296       C  0.20911319  0.70866661  0.47091246    -0.22500
C1297       C  0.33548709  0.83305790  0.49843589    -0.22500
C1298       C  0.33534732  0.83280542  0.46960129    -0.22500
C1299       C  0.23745387  0.73364322  0.53598774    -0.17800
C1300       C  0.31046394  0.80611521  0.53530615    -0.17800
C1301       C  0.30834517  0.80685904  0.43328302    -0.17800
C1302       C  0.23481749  0.73489378  0.43400638    -0.17800
H1303       H  0.26184010  0.74369036  0.59013062     0.15100
H1304       H  0.30100321  0.78249066  0.58970645     0.15100
H1305       H  0.24594150  0.75699350  0.37919780     0.15100
H1306       H  0.28532136  0.79548168  0.37879380     0.15100
H1307       H  0.19642753  0.69578616  0.51312643     0.13400
H1308       H  0.19565185  0.69579528  0.45781436     0.13400
H1309       H  0.34850972  0.84634478  0.51156422     0.13400
H1310       H  0.34800720  0.84609932  0.45618898     0.13400
H1311       H  0.26738065  0.77620241  0.50716676     0.26600
H1312       H  0.27733050  0.76536920  0.46242233     0.26600
N1313       N  0.76738864  0.26484542  0.51950533    -0.36100
N1314       N  0.73256311  0.23800893  0.47659895    -0.56700
N1315       N  0.76016689  0.27224664  0.43358069    -0.36100
N1316       N  0.79486391  0.29921446  0.47648858    -0.56700
C1317       C  0.74953436  0.25031558  0.53626403     0.27500
C1318       C  0.78234768  0.28240902  0.53624821     0.27500
C1319       C  0.74571599  0.25420881  0.41688105     0.27500
C1320       C  0.77787786  0.28698165  0.41684216     0.27500
C1321       C  0.72138977  0.22518644  0.49930852     0.36100
C1322       C  0.71921406  0.22744653  0.45385686     0.36100
C1323       C  0.80812954  0.30987002  0.49925432     0.36100
C1324       C  0.80523966  0.31284600  0.45385125     0.36100
C1325       C  0.75384934  0.25817684  0.56403339    -0.21400
C1326       C  0.77446418  0.27833166  0.56402545    -0.21400
C1327       C  0.75379488  0.25815811  0.38914352    -0.21400
C1328       C  0.77397041  0.27877506  0.38911601    -0.21400
C1329       C  0.70067712  0.20643692  0.49095141    -0.22500
C1330       C  0.69928384  0.20788139  0.46218448    -0.22500
C1331       C  0.82716926  0.33033343  0.49100213    -0.22500
C1332       C  0.82529188  0.33226060  0.46228781    -0.22500
C1333       C  0.72911017  0.23038841  0.52754894    -0.17800
C1334       C  0.80267033  0.30238885  0.52750759    -0.17800
C1335       C  0.79770581  0.30750879  0.42556541    -0.17800
C1336       C  0.72536111  0.23423656  0.42559586    -0.17800
H1337       H  0.74293281  0.25057901  0.58246998     0.15100
H1338       H  0.78236821  0.28910391  0.58246141     0.15100
H1339       H  0.74619877  0.24710901  0.37074163     0.15100
H1340       H  0.78483640  0.28649911  0.37070239     0.15100
H1341       H  0.68787431  0.19309076  0.50417504     0.13400
H1342       H  0.68533640  0.19571041  0.44892412     0.13400
H1343       H  0.84083212  0.34279621  0.50428698     0.13400
H1344       H  0.83742361  0.34628868  0.44913752     0.13400
H1345       H  0.77051752  0.26164443  0.49822157     0.26600
H1346       H  0.75667149  0.27574397  0.45476897     0.26600
N1347       N  0.28370491  0.56050161  0.73336233    -0.36100
N1348       N  0.30894719  0.51727685  0.76902846    -0.56700
N1349       N  0.27246518  0.47509226  0.74280053    -0.36100
N1350       N  0.24734946  0.51826408  0.70706011    -0.56700
C1351       C  0.29901497  0.57701030  0.75090259     0.27500
C1352       C  0.26610934  0.57759030  0.71879610     0.27500
C1353       C  0.28963722  0.45803245  0.75785166     0.27500
C1354       C  0.25746426  0.45851612  0.72506583     0.27500
C1355       C  0.32316414  0.53964376  0.77930204     0.36100
C1356       C  0.31832851  0.49448349  0.78315489     0.36100
C1357       C  0.23741481  0.54114163  0.69345839     0.36100
C1358       C  0.23324494  0.49585340  0.69671540     0.36100
C1359       C  0.29166900  0.60492493  0.74671238    -0.21400
C1360       C  0.27098891  0.60528849  0.72657967    -0.21400
C1361       C  0.28479927  0.43029077  0.75017185    -0.21400
C1362       C  0.26458615  0.43059841  0.72959797    -0.21400
C1363       C  0.34168576  0.53099185  0.80011103    -0.22500
C1364       C  0.33857788  0.50243163  0.80259298    -0.22500
C1365       C  0.21688006  0.53319536  0.67431393    -0.22500
C1366       C  0.21424587  0.50454985  0.67637482    -0.22500
C1367       C  0.31905780  0.56793548  0.77109943    -0.17800
C1368       C  0.24551658  0.56926811  0.69881285    -0.17800
C1369       C  0.23777471  0.46751499  0.70452550    -0.17800
C1370       C  0.30985572  0.46641805  0.77815496    -0.17800
H1371       H  0.29990340  0.62321907  0.75747256     0.15100
H1372       H  0.26043549  0.62393190  0.71890666     0.15100
H1373       H  0.29511336  0.41164823  0.75816378     0.15100
H1374       H  0.25645769  0.41225276  0.71884474     0.15100
H1375       H  0.35584750  0.54391161  0.81239769     0.13400
H1376       H  0.35007868  0.48903985  0.81696049     0.13400
H1377       H  0.20485800  0.54664281  0.66043419     0.13400
H1378       H  0.19998028  0.49161828  0.66422170     0.13400
H1379       H  0.28639294  0.53911847  0.73021728     0.26600
H1380       H  0.26985344  0.49650682  0.74577277     0.26600
N1381       N  0.76753448  0.56450114  0.21871148    -0.36100
N1382       N  0.79446116  0.52095355  0.25272792    -0.56700
N1383       N  0.75814719  0.47883024  0.22648779    -0.36100
N1384       N  0.73121531  0.52234579  0.19245079    -0.56700
C1385       C  0.78266125  0.58090833  0.23648386     0.27500
C1386       C  0.74981249  0.58160927  0.20436260     0.27500
C1387       C  0.77584814  0.46169482  0.24082131     0.27500
C1388       C  0.74262814  0.46239366  0.20910654     0.27500
C1389       C  0.80835478  0.54336821  0.26327854     0.36100
C1390       C  0.80477041  0.49803549  0.26594889     0.36100
C1391       C  0.72100397  0.54525139  0.17911698     0.36100
C1392       C  0.71723765  0.49992299  0.18199480     0.36100
C1393       C  0.77500382  0.60880357  0.23272515    -0.21400
C1394       C  0.75437307  0.60924584  0.21254553    -0.21400
C1395       C  0.77091453  0.43401941  0.23300961    -0.21400
C1396       C  0.75006500  0.43445872  0.21306757    -0.21400
C1397       C  0.82772341  0.53461361  0.28326142    -0.22500
C1398       C  0.82543759  0.50592713  0.28496648    -0.22500
C1399       C  0.70034819  0.53733404  0.16009867    -0.22500
C1400       C  0.69791219  0.50866462  0.16197315    -0.22500
C1401       C  0.80304674  0.57175931  0.25627129    -0.17800
C1402       C  0.72936030  0.57332580  0.18425305    -0.17800
C1403       C  0.72213992  0.47155347  0.18942935    -0.17800
C1404       C  0.79650761  0.46997139  0.26069184    -0.17800
H1405       H  0.78311711  0.62703408  0.24368464     0.15100
H1406       H  0.74360344  0.62787577  0.20514192     0.15100
H1407       H  0.78152978  0.41535430  0.24054766     0.15100
H1408       H  0.74169702  0.41619218  0.20236516     0.15100
H1409       H  0.84186022  0.54754765  0.29556280     0.13400
H1410       H  0.83765405  0.49244129  0.29863876     0.13400
H1411       H  0.68819479  0.55079515  0.14634847     0.13400
H1412       H  0.68366932  0.49574118  0.14978688     0.13400
H1413       H  0.77050083  0.54323428  0.21514970     0.26600
H1414       H  0.75544574  0.50016357  0.22981046     0.26600
N1415       N  0.55943322  0.27337109  0.72499998    -0.36100
N1416       N  0.51624555  0.29885043  0.76064397    -0.56700
N1417       N  0.47416039  0.26292755  0.73424018    -0.36100
N1418       N  0.51735697  0.23762792  0.69845470    -0.56700
C1419       C  0.57589826  0.28864752  0.74254737     0.27500
C1420       C  0.57650019  0.25530865  0.71099711     0.27500
C1421       C  0.45712820  0.27980604  0.74964662     0.27500
C1422       C  0.45761737  0.24876685  0.71583298     0.27500
C1423       C  0.53862698  0.31324072  0.77059684     0.36100
C1424       C  0.49361653  0.30802730  0.77514588     0.36100
C1425       C  0.54011288  0.22768554  0.68473186     0.36100
C1426       C  0.49482708  0.22435635  0.68743864     0.36100
C1427       C  0.60375128  0.28075605  0.73900889    -0.21400
C1428       C  0.60412549  0.25979758  0.71921265    -0.21400
C1429       C  0.42943784  0.27566745  0.74146510    -0.21400
C1430       C  0.42974114  0.25617333  0.72022045    -0.21400
C1431       C  0.53014315  0.33173620  0.79148908    -0.22500
C1432       C  0.50169742  0.32830358  0.79449478    -0.22500
C1433       C  0.53200104  0.20794973  0.66484458    -0.22500
C1434       C  0.50331037  0.20587117  0.66652580    -0.22500
C1435       C  0.56682909  0.30916438  0.76218762    -0.17800
C1436       C  0.56823649  0.23496604  0.69080339    -0.17800
C1437       C  0.46658447  0.22938062  0.69501659    -0.17800
C1438       C  0.46556113  0.29936965  0.77051528    -0.17800
H1439       H  0.62199253  0.28882294  0.74998064     0.15100
H1440       H  0.62274021  0.24893459  0.71193926     0.15100
H1441       H  0.41086874  0.28605636  0.74951730     0.15100
H1442       H  0.41140962  0.24864549  0.70901992     0.15100
H1443       H  0.54311594  0.34599996  0.80359559     0.13400
H1444       H  0.48847731  0.33964472  0.80913038     0.13400
H1445       H  0.54534740  0.19613157  0.65070545     0.13400
H1446       H  0.49020639  0.19236284  0.65370677     0.13400
H1447       H  0.53818843  0.27658522  0.72138033     0.26600
H1448       H  0.49548650  0.25983709  0.73742450     0.26600
N1449       N  0.56402975  0.77414448  0.22833161    -0.36100
N1450       N  0.52197072  0.73726580  0.20250136    -0.56700
N1451       N  0.47889290  0.76226601  0.23816191    -0.36100
N1452       N  0.52103417  0.79900307  0.26413661    -0.56700
C1453       C  0.58101319  0.75714121  0.21305079     0.27500
C1454       C  0.58059808  0.78813511  0.24688326     0.27500
C1455       C  0.46236797  0.74619643  0.22135341     0.27500
C1456       C  0.46175051  0.77992312  0.25252963     0.27500
C1457       C  0.54459429  0.72863536  0.18768116     0.36100
C1458       C  0.49970794  0.72264642  0.19255008     0.36100
C1459       C  0.54338779  0.81311159  0.27451674     0.36100
C1460       C  0.49807332  0.80958601  0.27698969     0.36100
C1461       C  0.60868517  0.76099856  0.22144899    -0.21400
C1462       C  0.60842026  0.78043871  0.24273861    -0.21400
C1463       C  0.43439652  0.75304029  0.22592880    -0.21400
C1464       C  0.43400811  0.77424751  0.24547290    -0.21400
C1465       C  0.53665088  0.70838739  0.16823464    -0.22500
C1466       C  0.50830377  0.70446565  0.17144616    -0.22500
C1467       C  0.53461271  0.83274612  0.29419273    -0.22500
C1468       C  0.50590112  0.83057183  0.29570690    -0.22500
C1469       C  0.57255305  0.73774085  0.19205831    -0.17800
C1470       C  0.57171083  0.80782770  0.26742655    -0.17800
C1471       C  0.47003740  0.80135427  0.27159076    -0.17800
C1472       C  0.47148517  0.72622138  0.20115483    -0.17800
H1473       H  0.62720660  0.75042698  0.21352667     0.15100
H1474       H  0.62673369  0.78778054  0.25409235     0.15100
H1475       H  0.41606971  0.74424029  0.21568926     0.15100
H1476       H  0.41530394  0.78464626  0.25319043     0.15100
H1477       H  0.54988813  0.69740229  0.15334964     0.13400
H1478       H  0.49545902  0.69010239  0.15932101     0.13400
H1479       H  0.54753319  0.84709655  0.30625949     0.13400
H1480       H  0.49235407  0.84307259  0.30904890     0.13400
H1481       H  0.54278010  0.77748023  0.22477595     0.26600
H1482       H  0.50040272  0.76025706  0.24078987     0.26600
N1483       N  0.77931253  0.77016016  0.52139687    -0.36100
N1484       N  0.74701392  0.79938908  0.47833751    -0.56700
N1485       N  0.77356509  0.76482367  0.43577829    -0.36100
N1486       N  0.80515043  0.73477062  0.47873114    -0.56700
C1487       C  0.76045663  0.78399676  0.53761207     0.27500
C1488       C  0.79195286  0.75061856  0.53777889     0.27500
C1489       C  0.75359747  0.77770094  0.42005713     0.27500
C1490       C  0.78429934  0.74349981  0.42026402     0.27500
C1491       C  0.73995336  0.81528784  0.50078720     0.36100
C1492       C  0.73769826  0.81316532  0.45530503     0.36100
C1493       C  0.82089249  0.72696770  0.50106987     0.36100
C1494       C  0.81797683  0.72423719  0.45568208     0.36100
C1495       C  0.76148429  0.77335368  0.56476007    -0.21400
C1496       C  0.78134551  0.75235207  0.56486123    -0.21400
C1497       C  0.75175740  0.76446032  0.39412982    -0.21400
C1498       C  0.77107212  0.74295426  0.39425323    -0.21400
C1499       C  0.72578547  0.83920750  0.49201552    -0.22500
C1500       C  0.72441538  0.83790275  0.46319934    -0.22500
C1501       C  0.84357989  0.71095467  0.49226184    -0.22500
C1502       C  0.84173748  0.70921223  0.46349697    -0.22500
C1503       C  0.74377590  0.80718402  0.52909615    -0.17800
C1504       C  0.81397997  0.73245840  0.52939502    -0.17800
C1505       C  0.80750983  0.72641634  0.42792420    -0.17800
C1506       C  0.73876500  0.80244969  0.42758636    -0.17800
H1507       H  0.74957411  0.78026685  0.58285000     0.15100
H1508       H  0.78747614  0.74000593  0.58295924     0.15100
H1509       H  0.73846187  0.77007043  0.37654755     0.15100
H1510       H  0.77530347  0.72906395  0.37675746     0.15100
H1511       H  0.71684256  0.85560728  0.50501193     0.13400
H1512       H  0.71413504  0.85308229  0.44972801     0.13400
H1513       H  0.85958528  0.70125062  0.50522052     0.13400
H1514       H  0.85604686  0.69781453  0.44997940     0.13400
H1515       H  0.78554099  0.77587807  0.50131487     0.26600
H1516       H  0.78202716  0.77246985  0.45436020     0.26600
N1517       N  0.78037579  0.56399238  0.73156418    -0.36100
N1518       N  0.74340895  0.52100270  0.75549590    -0.56700
N1519       N  0.76902826  0.47901943  0.71877627    -0.36100
N1520       N  0.80593144  0.52204025  0.69479745    -0.56700
C1521       C  0.76320453  0.58056754  0.74711030     0.27500
C1522       C  0.79578157  0.58115150  0.71484472     0.27500
C1523       C  0.75381992  0.46192373  0.73574516     0.27500
C1524       C  0.78687572  0.46246813  0.70395830     0.27500
C1525       C  0.73339942  0.54339399  0.76982896     0.36100
C1526       C  0.72874879  0.49838868  0.76441755     0.36100
C1527       C  0.81962251  0.54484098  0.68488687     0.36100
C1528       C  0.81545681  0.49975133  0.68000448     0.36100
C1529       C  0.76851765  0.60856590  0.74086658    -0.21400
C1530       C  0.78896932  0.60892642  0.72059767    -0.21400
C1531       C  0.76147875  0.43419340  0.73091777    -0.21400
C1532       C  0.78226182  0.43453429  0.71096746    -0.21400
C1533       C  0.71219944  0.53495331  0.78793538    -0.22500
C1534       C  0.70922887  0.50648427  0.78448119    -0.22500
C1535       C  0.83798263  0.53696737  0.66366859    -0.22500
C1536       C  0.83534242  0.50843166  0.66057742    -0.22500
C1537       C  0.74232339  0.57152955  0.76634459    -0.17800
C1538       C  0.81531069  0.57283212  0.69392305    -0.17800
C1539       C  0.80740755  0.47150041  0.68434583    -0.17800
C1540       C  0.73351637  0.47030807  0.75588872    -0.17800
H1541       H  0.75828030  0.62695984  0.74951373     0.15100
H1542       H  0.79737813  0.62762890  0.71077009     0.15100
H1543       H  0.75334201  0.41555854  0.74109747     0.15100
H1544       H  0.79307049  0.41619612  0.70291656     0.15100
H1545       H  0.70004360  0.54794909  0.80211827     0.13400
H1546       H  0.69451178  0.49324521  0.79566463     0.13400
H1547       H  0.85177230  0.55037765  0.65154857     0.13400
H1548       H  0.84683679  0.49555310  0.64575031     0.13400
H1549       H  0.78252875  0.54241819  0.73342384     0.26600
H1550       H  0.76609060  0.50043368  0.71606276     0.26600
N1551       N  0.57249969  0.76857564  0.72591604    -0.36100
N1552       N  0.52891557  0.80128534  0.69751973    -0.56700
N1553       N  0.48636545  0.77318514  0.73174294    -0.36100
N1554       N  0.52990727  0.74045013  0.76006420    -0.56700
C1555       C  0.58888674  0.78662393  0.71120321     0.27500
C1556       C  0.58938464  0.75500252  0.74445016     0.27500
C1557       C  0.46950733  0.78708085  0.71343906     0.27500
C1558       C  0.47002318  0.75456931  0.74580599     0.27500
C1559       C  0.55146934  0.81264771  0.68457060     0.36100
C1560       C  0.50600382  0.81438783  0.68699870     0.36100
C1561       C  0.55286908  0.72817544  0.77141594     0.36100
C1562       C  0.50735598  0.72907391  0.77299083     0.36100
C1563       C  0.61658070  0.78383798  0.71996474    -0.21400
C1564       C  0.61688654  0.76399413  0.74087410    -0.21400
C1565       C  0.44206977  0.77769272  0.71649310    -0.21400
C1566       C  0.44239834  0.75725516  0.73682215    -0.21400
C1567       C  0.54281033  0.83304168  0.66561997    -0.22500
C1568       C  0.51404533  0.83422075  0.66724077    -0.22500
C1569       C  0.54485074  0.70884119  0.79167906    -0.22500
C1570       C  0.51604752  0.70945226  0.79271554    -0.22500
C1571       C  0.57986017  0.80594411  0.69035467    -0.17800
C1572       C  0.58103399  0.73471509  0.76461428    -0.17800
C1573       C  0.47897506  0.73515724  0.76659002    -0.17800
C1574       C  0.47783540  0.80804761  0.69397694    -0.17800
H1575       H  0.63473954  0.79527429  0.71245199     0.15100
H1576       H  0.63532605  0.75727074  0.75240411     0.15100
H1577       H  0.42366140  0.78454538  0.70499104     0.15100
H1578       H  0.42428966  0.74547072  0.74390739     0.15100
H1579       H  0.55585611  0.84598595  0.65223598     0.13400
H1580       H  0.50059538  0.84798181  0.65508315     0.13400
H1581       H  0.55833136  0.69575492  0.80452797     0.13400
H1582       H  0.50301077  0.69670966  0.80629927     0.13400
H1583       H  0.55148463  0.76433328  0.72213934     0.26600
H1584       H  0.50725196  0.77772932  0.73593007     0.26600
loop_ 
_geom_bond_atom_site_label_1 
_geom_bond_atom_site_label_2 
_geom_bond_distance 
_geom_bond_site_symmetry_2 
_ccdc_geom_bond_type 
N1            N2   1.323       .  A
N1            C5   1.346       .  A
N1           Cu9   2.080       .  S
N2            C3   1.346       .  A
N2           Cu8   2.077       .  S
C3            C4   1.382       .  A
C3            H6   1.082       .  S
C4            C5   1.382       .  A
C4          C118   1.482       .  S
C5            H7   1.082       .  S
Cu8          N11   2.077       .  S
Cu9          N19   2.080       .  S
Cu10         N12   2.066       .  S
Cu10         N18   2.067       .  S
N11          N12   1.323       .  A
N11          C15   1.346       .  A
N12          C13   1.344       .  A
C13          C14   1.380       .  A
C13          H16   1.082       .  S
C14          C15   1.382       .  A
C14        C1537   1.478       .  S
C15          H17   1.082       .  S
N18          N19   1.323       .  A
N18          C22   1.344       .  A
N19          C20   1.346       .  A
C20          C21   1.383       .  A
C20          H23   1.082       .  S
C21          C22   1.379       .  A
C21        C1572   1.479       .  S
C22          H24   1.082       .  S
N25          N26   1.324       .  A
N25          C29   1.346       .  A
N25         Cu33   2.078       .  S
N26          C27   1.345       .  A
N26         Cu32   2.076       .  S
C27          C28   1.381       .  A
C27          H30   1.082       .  S
C28          C29   1.382       .  A
C28         C185   1.480       .  S
C29          H31   1.082       .  S
Cu32         N35   2.075       .  S
Cu33         N43   2.077       .  S
Cu34         N36   2.071       .  S
Cu34         N42   2.071       .  S
N35          N36   1.322       .  A
N35          C39   1.345       .  A
N36          C37   1.345       .  A
C37          C38   1.381       .  A
C37          H40   1.082       .  S
C38          C39   1.382       .  A
C38        C1571   1.480       .  S
C39          H41   1.082       .  S
N42          N43   1.323       .  A
N42          C46   1.344       .  A
N43          C44   1.347       .  A
C44          C45   1.382       .  A
C44          H47   1.082       .  S
C45          C46   1.380       .  A
C45        C1503   1.479       .  S
C46          H48   1.082       .  S
N49          N50   1.323       .  A
N49          C53   1.347       .  A
N49         Cu57   2.081       .  S
N50          C51   1.344       .  A
N50         Cu56   2.070       .  S
C51          C52   1.380       .  A
C51          H54   1.082       .  S
C52          C53   1.382       .  A
C52        C1538   1.480       .  S
C53          H55   1.082       .  S
Cu56         N59   2.071       .  S
Cu57         N67   2.082       .  S
Cu58         N60   2.075       .  S
Cu58         N66   2.075       .  S
N59          N60   1.323       .  A
N59          C63   1.345       .  A
N60          C61   1.345       .  A
C61          C62   1.382       .  A
C61          H64   1.082       .  S
C62          C63   1.381       .  A
C62        C1504   1.478       .  S
C63          H65   1.082       .  S
N66          N67   1.323       .  A
N66          C70   1.346       .  A
N67          C68   1.346       .  A
C68          C69   1.383       .  A
C68          H71   1.082       .  S
C69          C70   1.381       .  A
C69         C151   1.483       .  S
C70          H72   1.082       .  S
N73          N74   1.323       .  A
N73          C77   1.345       .  A
N73         Cu81   2.073       .  S
N74          C75   1.345       .  A
N74         Cu80   2.075       .  S
C75          C76   1.381       .  A
C75          H78   1.082       .  S
C76          C77   1.380       .  A
C76         C117   1.479       .  S
C77          H79   1.082       .  S
Cu80         N83   2.075       .  S
Cu81         N91   2.072       .  S
Cu82         N84   2.078       .  S
Cu82         N90   2.078       .  S
N83          N84   1.323       .  A
N83          C87   1.346       .  A
N84          C85   1.346       .  A
C85          C86   1.382       .  A
C85          H88   1.082       .  S
C86          C87   1.381       .  A
C86         C186   1.480       .  S
C87          H89   1.082       .  S
N90          N91   1.323       .  A
N90          C94   1.347       .  A
N91          C92   1.345       .  A
C92          C93   1.381       .  A
C92          H95   1.082       .  S
C93          C94   1.382       .  A
C93         C152   1.481       .  S
C94          H96   1.082       .  S
N97         C102   1.356       .  A
N97         C101   1.356       .  A
N97         H129   1.035       .  S
N98         C105   1.350       .  A
N98         C106   1.351   1_556  A
N99         C104   1.355       .  A
N99         C103   1.356       .  A
N99         H130   1.033       .  S
N100        C107   1.351       .  A
N100        C108   1.351   1_556  A
C101        C109   1.388       .  A
C101        C117   1.420       .  A
C102        C118   1.420       .  A
C102        C110   1.387       .  A
C103        C111   1.387       .  A
C103        C120   1.420       .  A
C104        C119   1.420       .  A
C104        C112   1.388       .  A
C105        C117   1.414       .  A
C105        C113   1.387       .  A
C106        C120   1.414       .  A
C106        C114   1.386   1_554  A
C107        C115   1.386       .  A
C107        C118   1.415       .  A
C108        C116   1.387   1_554  A
C108        C119   1.416       .  A
C109        C110   1.373       .  A
C109        H121   1.082       .  S
C110        H122   1.082       .  S
C111        C112   1.372       .  A
C111        H123   1.082       .  S
C112        H124   1.082       .  S
C113        C114   1.372       .  A
C113        H125   1.082       .  S
C114        H126   1.082   1_556  S
C115        C116   1.372       .  A
C115        H127   1.082       .  S
C116        H128   1.082   1_556  S
C119        C219   1.479       .  S
C120        C349   1.481       .  S
N131        C136   1.355       .  A
N131        C135   1.356       .  A
N131        H163   1.034   1_655  S
N132        C139   1.352       .  A
N132        C140   1.351       .  A
N133        C138   1.356       .  A
N133        C137   1.356       .  A
N133        H164   1.036       .  S
N134        C141   1.352       .  A
N134        C142   1.352       .  A
C135        C143   1.388       .  A
C135        C151   1.420       .  A
C136        C152   1.420       .  A
C136        C144   1.388       .  A
C137        C145   1.388       .  A
C137        C154   1.419       .  A
C138        C153   1.420       .  A
C138        C146   1.388       .  A
C139        C151   1.415   1_455  A
C139        C147   1.386       .  A
C140        C154   1.415       .  A
C140        C148   1.387       .  A
C141        C149   1.387       .  A
C141        C152   1.417   1_455  A
C142        C150   1.386       .  A
C142        C153   1.416       .  A
C143        C144   1.372       .  A
C143        H155   1.082       .  S
C144        H156   1.082       .  S
C145        C146   1.372       .  A
C145        H157   1.082       .  S
C146        H158   1.082       .  S
C147        C148   1.371       .  A
C147        H159   1.082       .  S
C148        H160   1.082       .  S
C149        C150   1.372       .  A
C149        H161   1.082       .  S
C150        H162   1.082       .  S
C153        C489   1.483       .  S
C154        C267   1.480       .  S
N165        C170   1.354       .  A
N165        C169   1.354       .  A
N165        H197   1.036       .  S
N166        C173   1.351   1_545  A
N166        C174   1.352       .  A
N167        C172   1.354       .  A
N167        C171   1.354       .  A
N167        H198   1.036       .  S
N168        C175   1.351       .  A
N168        C176   1.352       .  A
C169        C177   1.388       .  A
C169        C185   1.418       .  A
C170        C186   1.417       .  A
C170        C178   1.387       .  A
C171        C179   1.387       .  A
C171        C188   1.418       .  A
C172        C187   1.418       .  A
C172        C180   1.388       .  A
C173        C185   1.414       .  A
C173        C181   1.386   1_565  A
C174        C188   1.415       .  A
C174        C182   1.387       .  A
C175        C183   1.386       .  A
C175        C186   1.413   1_545  A
C176        C184   1.387       .  A
C176        C187   1.415       .  A
C177        C178   1.376       .  A
C177        H189   1.082       .  S
C178        H190   1.082       .  S
C179        C180   1.374       .  A
C179        H191   1.081       .  S
C180        H192   1.081       .  S
C181        C182   1.374       .  A
C181        H193   1.082   1_545  S
C182        H194   1.082       .  S
C183        C184   1.373       .  A
C183        H195   1.082   1_545  S
C184        H196   1.082       .  S
C187        C629   1.481       .  S
C188        C243   1.482       .  S
N199        N200   1.323       .  A
N199        C203   1.346       .  A
N199       Cu207   2.075       .  S
N200        C201   1.343       .  A
N200       Cu206   2.067       .  S
C201        C202   1.379       .  A
C201        H204   1.082       .  S
C202        C203   1.382       .  A
C202       C1469   1.478       .  S
C203        H205   1.082       .  S
Cu206       N209   2.068       .  S
Cu207       N217   2.075       .  S
Cu208       N210   2.074       .  S
Cu208       N216   2.074       .  S
N209        N210   1.322       .  A
N209        C213   1.345       .  A
N210        C211   1.345       .  A
C211        C212   1.382       .  A
C211        H214   1.082       .  S
C212        C213   1.381       .  A
C212       C1402   1.480       .  S
C213        H215   1.082       .  S
N216        N217   1.323       .  A
N216        C220   1.345       .  A
N217        C218   1.346       .  A
C218        C219   1.381       .  A
C218        H221   1.082       .  S
C219        C220   1.381       .  A
C220        H222   1.082       .  S
N223        N224   1.323       .  A
N223        C227   1.345       .  A
N223       Cu231   2.076       .  S
N224        C225   1.345       .  A
N224       Cu230   2.071       .  S
C225        C226   1.381       .  A
C225        H228   1.082       .  S
C226        C227   1.381       .  A
C226       C1333   1.479       .  S
C227        H229   1.082       .  S
Cu230       N233   2.071       .  S
Cu231       N241   2.076       .  S
Cu232       N234   2.076       .  S
Cu232       N240   2.076       .  S
N233        N234   1.323       .  A
N233        C237   1.345       .  A
N234        C235   1.345       .  A
C235        C236   1.381       .  A
C235        H238   1.082       .  S
C236        C237   1.381       .  A
C236       C1436   1.479       .  S
C237        H239   1.082       .  S
N240        N241   1.323       .  A
N240        C244   1.346       .  A
N241        C242   1.345       .  A
C242        C243   1.382       .  A
C242        H245   1.082       .  S
C243        C244   1.383       .  A
C244        H246   1.082       .  S
N247        N248   1.323       .  A
N247        C251   1.345       .  A
N247       Cu255   2.077       .  S
N248        C249   1.347       .  A
N248       Cu254   2.077       .  S
C249        C250   1.382       .  A
C249        H252   1.082       .  S
C250        C251   1.381       .  A
C250       C1368   1.482       .  S
C251        H253   1.082       .  S
Cu254       N257   2.076       .  S
Cu255       N265   2.077       .  S
Cu256       N258   2.066       .  S
Cu256       N264   2.067       .  S
N257        N258   1.323       .  A
N257        C261   1.345       .  A
N258        C259   1.344       .  A
C259        C260   1.379       .  A
C259        H262   1.082       .  S
C260        C261   1.381       .  A
C260       C1299   1.477       .  S
C261        H263   1.082       .  S
N264        N265   1.322       .  A
N264        C268   1.344       .  A
N265        C266   1.346       .  A
C266        C267   1.382       .  A
C266        H269   1.082       .  S
C267        C268   1.380       .  A
C268        H270   1.082       .  S
N271        N272   1.323       .  A
N271        C275   1.346       .  A
N271       Cu279   2.077       .  S
N272        C273   1.345       .  A
N272       Cu278   2.075       .  S
C273        C274   1.381       .  A
C273        H276   1.082       .  S
C274        C275   1.381       .  A
C274       C1401   1.480       .  S
C275        H277   1.082       .  S
Cu278       N281   2.075       .  S
Cu279       N289   2.077       .  S
Cu280       N282   2.073       .  S
Cu280       N288   2.074       .  S
N281        N282   1.323       .  A
N281        C285   1.346       .  A
N282        C283   1.344       .  A
C283        C284   1.381       .  A
C283        H286   1.082       .  S
C284        C285   1.383       .  A
C284       C1505   1.481       .  S
C285        H287   1.082       .  S
N288        N289   1.323       .  A
N288        C292   1.345       .  A
N289        C290   1.346       .  A
C290        C291   1.383       .  A
C290        H293   1.082       .  S
C291        C292   1.381       .  A
C291        C316   1.482       .  S
C292        H294   1.082       .  S
N295        C300   1.356       .  A
N295        C299   1.356       .  A
N295        H327   1.035       .  S
N296        C303   1.352   1_455  A
N296        C304   1.352       .  A
N297        C302   1.356       .  A
N297        C301   1.355       .  A
N297        H328   1.034       .  S
N298        C305   1.351   1_455  A
N298        C306   1.351       .  A
C299        C307   1.387       .  A
C299        C315   1.419       .  A
C300        C316   1.421       .  A
C300        C308   1.388       .  A
C301        C309   1.387       .  A
C301        C318   1.419       .  A
C302        C317   1.420       .  A
C302        C310   1.388       .  A
C303        C315   1.416       .  A
C303        C311   1.387   1_655  A
C304        C318   1.416       .  A
C304        C312   1.387       .  A
C305        C313   1.387   1_655  A
C305        C316   1.415       .  A
C306        C314   1.387       .  A
C306        C317   1.415       .  A
C307        C308   1.373       .  A
C307        H319   1.082       .  S
C308        H320   1.082       .  S
C309        C310   1.372       .  A
C309        H321   1.082       .  S
C310        H322   1.082       .  S
C311        C312   1.372       .  A
C311        H323   1.082   1_455  S
C312        H324   1.082       .  S
C313        C314   1.372       .  A
C313        H325   1.082   1_455  S
C314        H326   1.082       .  S
C315        C342   1.483       .  S
C317       C1043   1.482       .  S
C318        C800   1.481       .  S
N329        N330   1.323       .  A
N329        C333   1.345       .  A
N329       Cu337   2.072       .  S
N330        C331   1.346       .  A
N330       Cu336   2.077       .  S
C331        C332   1.382       .  A
C331        H334   1.082       .  S
C332        C333   1.381       .  A
C332        C397   1.480       .  S
C333        H335   1.082       .  S
Cu336       N339   2.077       .  S
Cu337       N347   2.072       .  S
Cu338       N340   2.079       .  S
Cu338       N346   2.079       .  S
N339        N340   1.323       .  A
N339        C343   1.346       .  A
N340        C341   1.346       .  A
C341        C342   1.382       .  A
C341        H344   1.082       .  S
C342        C343   1.382       .  A
C343        H345   1.082       .  S
N346        N347   1.323       .  A
N346        C350   1.346       .  A
N347        C348   1.345       .  A
C348        C349   1.381       .  A
C348        H351   1.082       .  S
C349        C350   1.383       .  A
C350        H352   1.082       .  S
N353        N354   1.323       .  A
N353        C357   1.345       .  A
N353       Cu361   2.073       .  S
N354        C355   1.344       .  A
N354       Cu360   2.070       .  S
C355        C356   1.380       .  A
C355        H358   1.082       .  S
C356        C357   1.381       .  A
C356        C398   1.478       .  S
C357        H359   1.082       .  S
Cu360       N363   2.070       .  S
Cu361       N371   2.074       .  S
Cu362       N364   2.079       .  S
Cu362       N370   2.080       .  S
N363        N364   1.323       .  A
N363        C367   1.345       .  A
N364        C365   1.346       .  A
C365        C366   1.382       .  A
C365        H368   1.082       .  S
C366        C367   1.380       .  A
C366       C1470   1.480       .  S
C367        H369   1.082       .  S
N370        N371   1.323       .  A
N370        C374   1.346       .  A
N371        C372   1.345       .  A
C372        C373   1.382       .  A
C372        H375   1.082       .  S
C373        C374   1.383       .  A
C373       C1506   1.482       .  S
C374        H376   1.082       .  S
N377        C382   1.355       .  A
N377        C381   1.356       .  A
N377        H409   1.035   1_565  S
N378        C385   1.351       .  A
N378        C386   1.350       .  A
N379        C384   1.356       .  A
N379        C383   1.355       .  A
N379        H410   1.036       .  S
N380        C387   1.350   1_545  A
N380        C388   1.351       .  A
C381        C389   1.387       .  A
C381        C397   1.418       .  A
C382        C398   1.418       .  A
C382        C390   1.387       .  A
C383        C391   1.388       .  A
C383        C400   1.418       .  A
C384        C399   1.419       .  A
C384        C392   1.387       .  A
C385        C397   1.413   1_545  A
C385        C393   1.387       .  A
C386        C400   1.413       .  A
C386        C394   1.387       .  A
C387        C395   1.387   1_565  A
C387        C398   1.413       .  A
C388        C396   1.386       .  A
C388        C399   1.413       .  A
C389        C390   1.371       .  A
C389        H401   1.082       .  S
C390        H402   1.082       .  S
C391        C392   1.371       .  A
C391        H403   1.082       .  S
C392        H404   1.082       .  S
C393        C394   1.371       .  A
C393        H405   1.082   1_545  S
C394        H406   1.082       .  S
C395        C396   1.371       .  A
C395        H407   1.082   1_545  S
C396        H408   1.082       .  S
C399        C752   1.480       .  S
C400        C954   1.477       .  S
N411        N412   1.322       .  A
N411        C415   1.343       .  A
N411       Cu419   2.062       .  S
N412        C413   1.344       .  A
N412       Cu418   2.070       .  S
C413        C414   1.380       .  A
C413        H416   1.082       .  S
C414        C415   1.379       .  A
C414        C456   1.475       .  S
C415        H417   1.082       .  S
Cu418       N421   2.070       .  S
Cu419       N429   2.062       .  S
Cu420       N422   2.079       .  S
Cu420       N428   2.079       .  S
N421        N422   1.323       .  A
N421        C425   1.345       .  A
N422        C423   1.346       .  A
C423        C424   1.382       .  A
C423        H426   1.082       .  S
C424        C425   1.380       .  A
C424       C1574   1.480       .  S
C425        H427   1.082       .  S
N428        N429   1.323       .  A
N428        C432   1.346       .  A
N429        C430   1.343       .  A
C430        C431   1.378       .  A
C430        H433   1.082       .  S
C431        C432   1.383       .  A
C431       C1300   1.477       .  S
C432        H434   1.082       .  S
N435        C440   1.355       .  A
N435        C439   1.355       .  A
N435        H467   1.035       .  S
N436        C443   1.352   1_545  A
N436        C444   1.351       .  A
N437        C442   1.356       .  A
N437        C441   1.356       .  A
N437        H468   1.037       .  S
N438        C445   1.350   1_545  A
N438        C446   1.350       .  A
C439        C447   1.387       .  A
C439        C455   1.418       .  A
C440        C456   1.417       .  A
C440        C448   1.388       .  A
C441        C449   1.387       .  A
C441        C458   1.418       .  A
C442        C457   1.418       .  A
C442        C450   1.387       .  A
C443        C455   1.414       .  A
C443        C451   1.386   1_565  A
C444        C458   1.414       .  A
C444        C452   1.387       .  A
C445        C453   1.387   1_565  A
C445        C456   1.412       .  A
C446        C454   1.387       .  A
C446        C457   1.412       .  A
C447        C448   1.370       .  A
C447        H459   1.082       .  S
C448        H460   1.082       .  S
C449        C450   1.371       .  A
C449        H461   1.082       .  S
C450        H462   1.082       .  S
C451        C452   1.371       .  A
C451        H463   1.082   1_545  S
C452        H464   1.082       .  S
C453        C454   1.371       .  A
C453        H465   1.082   1_545  S
C454        H466   1.082       .  S
C455        C482   1.481       .  S
C457        C889   1.479       .  S
C458       C1108   1.479       .  S
N469        N470   1.323       .  A
N469        C473   1.345       .  A
N469       Cu477   2.079       .  S
N470        C471   1.346       .  A
N470       Cu476   2.075       .  S
C471        C472   1.381       .  A
C471        H474   1.082       .  S
C472        C473   1.382       .  A
C472        C538   1.481       .  S
C473        H475   1.082       .  S
Cu476       N479   2.074       .  S
Cu477       N487   2.079       .  S
Cu478       N480   2.076       .  S
Cu478       N486   2.075       .  S
N479        N480   1.323       .  A
N479        C483   1.345       .  A
N480        C481   1.345       .  A
C481        C482   1.382       .  A
C481        H484   1.082       .  S
C482        C483   1.382       .  A
C483        H485   1.082       .  S
N486        N487   1.323       .  A
N486        C490   1.345       .  A
N487        C488   1.347       .  A
C488        C489   1.383       .  A
C488        H491   1.082       .  S
C489        C490   1.382       .  A
C490        H492   1.082       .  S
N493        N494   1.323       .  A
N493        C497   1.344       .  A
N493       Cu501   2.069       .  S
N494        C495   1.345       .  A
N494       Cu500   2.073       .  S
C495        C496   1.381       .  A
C495        H498   1.082       .  S
C496        C497   1.380       .  A
C496        C537   1.478       .  S
C497        H499   1.082       .  S
Cu500       N503   2.073       .  S
Cu501       N511   2.069       .  S
Cu502       N504   2.083       .  S
Cu502       N510   2.082       .  S
N503        N504   1.323       .  A
N503        C507   1.345       .  A
N504        C505   1.347       .  A
C505        C506   1.383       .  A
C505        H508   1.082       .  S
C506        C507   1.381       .  A
C506       C1367   1.483       .  S
C507        H509   1.082       .  S
N510        N511   1.323       .  A
N510        C514   1.346       .  A
N511        C512   1.345       .  A
C512        C513   1.380       .  A
C512        H515   1.082       .  S
C513        C514   1.383       .  A
C513       C1573   1.480       .  S
C514        H516   1.082       .  S
N517        C522   1.356       .  A
N517        C521   1.355       .  A
N517        H549   1.036       .  S
N518        C525   1.350       .  A
N518        C526   1.351   1_556  A
N519        C524   1.355       .  A
N519        C523   1.356       .  A
N519        H550   1.034       .  S
N520        C527   1.351       .  A
N520        C528   1.351   1_556  A
C521        C529   1.388       .  A
C521        C537   1.418       .  A
C522        C538   1.418       .  A
C522        C530   1.387       .  A
C523        C531   1.387       .  A
C523        C540   1.419       .  A
C524        C539   1.419       .  A
C524        C532   1.388       .  A
C525        C537   1.413       .  A
C525        C533   1.387       .  A
C526        C540   1.414       .  A
C526        C534   1.387   1_554  A
C527        C535   1.386       .  A
C527        C538   1.414       .  A
C528        C536   1.387   1_554  A
C528        C539   1.415       .  A
C529        C530   1.370       .  A
C529        H541   1.082       .  S
C530        H542   1.082       .  S
C531        C532   1.371       .  A
C531        H543   1.082       .  S
C532        H544   1.082       .  S
C533        C534   1.371       .  A
C533        H545   1.082       .  S
C534        H546   1.082   1_556  S
C535        C536   1.372       .  A
C535        H547   1.082       .  S
C536        H548   1.082   1_556  S
C539        C790   1.478       .  S
C540        C735   1.480       .  S
N551        N552   1.323       .  A
N551        C555   1.346       .  A
N551       Cu559   2.077       .  S
N552        C553   1.345       .  A
N552       Cu558   2.073       .  S
C553        C554   1.381       .  A
C553        H556   1.082       .  S
C554        C555   1.382       .  A
C554        C596   1.481       .  S
C555        H557   1.082       .  S
Cu558       N561   2.073       .  S
Cu559       N569   2.076       .  S
Cu560       N562   2.071       .  S
Cu560       N568   2.071       .  S
N561        N562   1.323       .  A
N561        C565   1.345       .  A
N562        C563   1.345       .  A
C563        C564   1.381       .  A
C563        H566   1.082       .  S
C564        C565   1.381       .  A
C564       C1334   1.479       .  S
C565        H567   1.082       .  S
N568        N569   1.323       .  A
N568        C572   1.345       .  A
N569        C570   1.345       .  A
C570        C571   1.381       .  A
C570        H573   1.082       .  S
C571        C572   1.380       .  A
C571       C1539   1.478       .  S
C572        H574   1.082       .  S
N575        C580   1.355       .  A
N575        C579   1.356       .  A
N575        H607   1.033       .  S
N576        C583   1.351   1_455  A
N576        C584   1.351       .  A
N577        C582   1.356       .  A
N577        C581   1.357       .  A
N577        H608   1.035       .  S
N578        C585   1.352   1_455  A
N578        C586   1.352       .  A
C579        C587   1.388       .  A
C579        C595   1.420       .  A
C580        C596   1.420       .  A
C580        C588   1.388       .  A
C581        C589   1.388       .  A
C581        C598   1.421       .  A
C582        C597   1.419       .  A
C582        C590   1.387       .  A
C583        C595   1.415       .  A
C583        C591   1.387   1_655  A
C584        C598   1.415       .  A
C584        C592   1.387       .  A
C585        C593   1.387   1_655  A
C585        C596   1.416       .  A
C586        C594   1.386       .  A
C586        C597   1.415       .  A
C587        C588   1.373       .  A
C587        H599   1.082       .  S
C588        H600   1.082       .  S
C589        C590   1.372       .  A
C589        H601   1.082       .  S
C590        H602   1.082       .  S
C591        C592   1.372       .  A
C591        H603   1.082   1_455  S
C592        H604   1.082       .  S
C593        C594   1.372       .  A
C593        H605   1.082   1_455  S
C594        H606   1.082       .  S
C595        C612   1.481       .  S
C597        C913   1.482       .  S
C598       C1115   1.482       .  S
N609        N610   1.323       .  A
N609        C613   1.345       .  A
N609       Cu617   2.071       .  S
N610        C611   1.346       .  A
N610       Cu616   2.079       .  S
C611        C612   1.382       .  A
C611        H614   1.082       .  S
C612        C613   1.381       .  A
C613        H615   1.082       .  S
Cu616       N619   2.079       .  S
Cu617       N627   2.071       .  S
Cu618       N620   2.079       .  S
Cu618       N626   2.079       .  S
N619        N620   1.323       .  A
N619        C623   1.347       .  A
N620        C621   1.346       .  A
C621        C622   1.382       .  A
C621        H624   1.082       .  S
C622        C623   1.382       .  A
C622        C678   1.482       .  S
C623        H625   1.082       .  S
N626        N627   1.323       .  A
N626        C630   1.346       .  A
N627        C628   1.344       .  A
C628        C629   1.380       .  A
C628        H631   1.082       .  S
C629        C630   1.384       .  A
C630        H632   1.082       .  S
N633        N634   1.323       .  A
N633        C637   1.344       .  A
N633       Cu641   2.070       .  S
N634        C635   1.345       .  A
N634       Cu640   2.076       .  S
C635        C636   1.382       .  A
C635        H638   1.082       .  S
C636        C637   1.380       .  A
C636       C1435   1.479       .  S
C637        H639   1.082       .  S
Cu640       N643   2.076       .  S
Cu641       N651   2.071       .  S
Cu642       N644   2.075       .  S
Cu642       N650   2.075       .  S
N643        N644   1.323       .  A
N643        C647   1.347       .  A
N644        C645   1.345       .  A
C645        C646   1.381       .  A
C645        H648   1.082       .  S
C646        C647   1.382       .  A
C646       C1540   1.481       .  S
C647        H649   1.082       .  S
N650        N651   1.323       .  A
N650        C654   1.345       .  A
N651        C652   1.345       .  A
C652        C653   1.381       .  A
C652        H655   1.082       .  S
C653        C654   1.381       .  A
C653        C677   1.480       .  S
C654        H656   1.082       .  S
N657        C662   1.356       .  A
N657        C661   1.356       .  A
N657        H689   1.036       .  S
N658        C665   1.351       .  A
N658        C666   1.351       .  A
N659        C664   1.356       .  A
N659        C663   1.356       .  A
N659        H690   1.036   1_554  S
N660        C667   1.351       .  A
N660        C668   1.351   1_556  A
C661        C669   1.387       .  A
C661        C677   1.419       .  A
C662        C678   1.420       .  A
C662        C670   1.388       .  A
C663        C671   1.388       .  A
C663        C680   1.419       .  A
C664        C679   1.419       .  A
C664        C672   1.388       .  A
C665        C677   1.413       .  A
C665        C673   1.387       .  A
C666        C680   1.413   1_556  A
C666        C674   1.387       .  A
C667        C675   1.387       .  A
C667        C678   1.415       .  A
C668        C676   1.387   1_554  A
C668        C679   1.415       .  A
C669        C670   1.372       .  A
C669        H681   1.082       .  S
C670        H682   1.082       .  S
C671        C672   1.372       .  A
C671        H683   1.082       .  S
C672        H684   1.082       .  S
C673        C674   1.371       .  A
C673        H685   1.082       .  S
C674        H686   1.082   1_556  S
C675        C676   1.372       .  A
C675        H687   1.082       .  S
C676        H688   1.082   1_556  S
C679        C961   1.480       .  S
C680        C711   1.479       .  S
N691        N692   1.322       .  A
N691        C695   1.345       .  A
N691       Cu699   2.072       .  S
N692        C693   1.345       .  A
N692       Cu698   2.071       .  S
C693        C694   1.381       .  A
C693        H696   1.082       .  S
C694        C695   1.382       .  A
C694       C1403   1.480       .  S
C695        H697   1.082       .  S
Cu698       N701   2.071       .  S
Cu699       N709   2.072       .  S
Cu700       N702   2.076       .  S
Cu700       N708   2.076       .  S
N701        N702   1.323       .  A
N701        C705   1.344       .  A
N702        C703   1.346       .  A
C703        C704   1.382       .  A
C703        H706   1.082       .  S
C704        C705   1.380       .  A
C704       C1231   1.478       .  S
C705        H707   1.082       .  S
N708        N709   1.323       .  A
N708        C712   1.346       .  A
N709        C710   1.345       .  A
C710        C711   1.380       .  A
C710        H713   1.082       .  S
C711        C712   1.381       .  A
C712        H714   1.082       .  S
N715        N716   1.323       .  A
N715        C719   1.344       .  A
N715       Cu723   2.070       .  S
N716        C717   1.346       .  A
N716       Cu722   2.077       .  S
C717        C718   1.382       .  A
C717        H720   1.082       .  S
C718        C719   1.380       .  A
C718       C1197   1.479       .  S
C719        H721   1.082       .  S
Cu722       N725   2.077       .  S
Cu723       N733   2.070       .  S
Cu724       N726   2.076       .  S
Cu724       N732   2.076       .  S
N725        N726   1.323       .  A
N725        C729   1.346       .  A
N726        C727   1.345       .  A
C727        C728   1.382       .  A
C727        H730   1.082       .  S
C728        C729   1.382       .  A
C728       C1472   1.482       .  S
C729        H731   1.082       .  S
N732        N733   1.322       .  A
N732        C736   1.345       .  A
N733        C734   1.345       .  A
C734        C735   1.381       .  A
C734        H737   1.082       .  S
C735        C736   1.382       .  A
C736        H738   1.082       .  S
N739        N740   1.322       .  A
N739        C743   1.343       .  A
N739       Cu747   2.060       .  S
N740        C741   1.344       .  A
N740       Cu746   2.072       .  S
C741        C742   1.381       .  A
C741        H744   1.082       .  S
C742        C743   1.378       .  A
C742       C1232   1.473       .  S
C743        H745   1.082       .  S
Cu746       N749   2.073       .  S
Cu747       N757   2.060       .  S
Cu748       N750   2.079       .  S
Cu748       N756   2.079       .  S
N749        N750   1.323       .  A
N749        C753   1.346       .  A
N750        C751   1.345       .  A
C751        C752   1.381       .  A
C751        H754   1.082       .  S
C752        C753   1.381       .  A
C753        H755   1.082       .  S
N756        N757   1.322       .  A
N756        C760   1.346       .  A
N757        C758   1.343       .  A
C758        C759   1.378       .  A
C758        H761   1.082       .  S
C759        C760   1.383       .  A
C759       C1336   1.478       .  S
C760        H762   1.082       .  S
N763        N764   1.322       .  A
N763        C767   1.344       .  A
N763       Cu771   2.070       .  S
N764        C765   1.344       .  A
N764       Cu770   2.064       .  S
C765        C766   1.379       .  A
C765        H768   1.082       .  S
C766        C767   1.381       .  A
C766       C1233   1.475       .  S
C767        H769   1.082       .  S
Cu770       N773   2.064       .  S
Cu771       N781   2.071       .  S
Cu772       N774   2.071       .  S
Cu772       N780   2.071       .  S
N773        N774   1.322       .  A
N773        C777   1.343       .  A
N774        C775   1.345       .  A
C775        C776   1.381       .  A
C775        H778   1.082       .  S
C776        C777   1.379       .  A
C776        C855   1.476       .  S
C777        H779   1.082       .  S
N780        N781   1.323       .  A
N780        C784   1.344       .  A
N781        C782   1.345       .  A
C782        C783   1.381       .  A
C782        H785   1.082       .  S
C783        C784   1.380       .  A
C783       C1266   1.477       .  S
C784        H786   1.082       .  S
N787        N788   1.323       .  A
N787        C791   1.344       .  A
N787       Cu795   2.071       .  S
N788        C789   1.345       .  A
N788       Cu794   2.074       .  S
C789        C790   1.381       .  A
C789        H792   1.082       .  S
C790        C791   1.381       .  A
C791        H793   1.082       .  S
Cu794       N797   2.074       .  S
Cu795       N805   2.070       .  S
Cu796       N798   2.076       .  S
Cu796       N804   2.075       .  S
N797        N798   1.323       .  A
N797        C801   1.345       .  A
N798        C799   1.346       .  A
C799        C800   1.382       .  A
C799        H802   1.082       .  S
C800        C801   1.381       .  A
C801        H803   1.082       .  S
N804        N805   1.323       .  A
N804        C808   1.345       .  A
N805        C806   1.345       .  A
C806        C807   1.381       .  A
C806        H809   1.082       .  S
C807        C808   1.381       .  A
C807        C857   1.479       .  S
C808        H810   1.082       .  S
N811        N812   1.323       .  A
N811        C815   1.345       .  A
N811       Cu819   2.075       .  S
N812        C813   1.346       .  A
N812       Cu818   2.076       .  S
C813        C814   1.381       .  A
C813        H816   1.082       .  S
C814        C815   1.381       .  A
C814        C858   1.480       .  S
C815        H817   1.082       .  S
Cu818       N821   2.075       .  S
Cu819       N829   2.075       .  S
Cu820       N822   2.064       .  S
Cu820       N828   2.064       .  S
N821        N822   1.322       .  A
N821        C825   1.345       .  A
N822        C823   1.344       .  A
C823        C824   1.379       .  A
C823        H826   1.082       .  S
C824        C825   1.381       .  A
C824       C1471   1.477       .  S
C825        H827   1.082       .  S
N828        N829   1.323       .  A
N828        C832   1.343       .  A
N829        C830   1.345       .  A
C830        C831   1.382       .  A
C830        H833   1.082       .  S
C831        C832   1.378       .  A
C831       C1301   1.476       .  S
C832        H834   1.082       .  S
N835        C840   1.355       .  A
N835        C839   1.354       .  A
N835        H867   1.034       .  S
N836        C843   1.350       .  A
N836        C844   1.350   1_545  A
N837        C842   1.355       .  A
N837        C841   1.356       .  A
N837        H868   1.036       .  S
N838        C845   1.351       .  A
N838        C846   1.350   1_545  A
C839        C847   1.388       .  A
C839        C855   1.419       .  A
C840        C856   1.418       .  A
C840        C848   1.387       .  A
C841        C849   1.387       .  A
C841        C858   1.418       .  A
C842        C857   1.418       .  A
C842        C850   1.387       .  A
C843        C855   1.414       .  A
C843        C851   1.387       .  A
C844        C858   1.413       .  A
C844        C852   1.386   1_565  A
C845        C853   1.387       .  A
C845        C856   1.414       .  A
C846        C854   1.387   1_565  A
C846        C857   1.413       .  A
C847        C848   1.371       .  A
C847        H859   1.082       .  S
C848        H860   1.082       .  S
C849        C850   1.371       .  A
C849        H861   1.082       .  S
C850        H862   1.082       .  S
C851        C852   1.372       .  A
C851        H863   1.082       .  S
C852        H864   1.082   1_545  S
C853        C854   1.371       .  A
C853        H865   1.082       .  S
C854        H866   1.082   1_545  S
C856       C1067   1.478       .  S
N869        N870   1.322       .  A
N869        C873   1.344       .  A
N869       Cu877   2.073       .  S
N870        C871   1.345       .  A
N870       Cu876   2.065       .  S
C871        C872   1.380       .  A
C871        H874   1.082       .  S
C872        C873   1.381       .  A
C872       C1267   1.476       .  S
C873        H875   1.082       .  S
Cu876       N879   2.065       .  S
Cu877       N887   2.074       .  S
Cu878       N880   2.070       .  S
Cu878       N886   2.070       .  S
N879        N880   1.323       .  A
N879        C883   1.343       .  A
N880        C881   1.345       .  A
C881        C882   1.380       .  A
C881        H884   1.082       .  S
C882        C883   1.379       .  A
C882       C1437   1.475       .  S
C883        H885   1.082       .  S
N886        N887   1.323       .  A
N886        C890   1.344       .  A
N887        C888   1.346       .  A
C888        C889   1.382       .  A
C888        H891   1.082       .  S
C889        C890   1.380       .  A
C890        H892   1.082       .  S
N893        N894   1.323       .  A
N893        C897   1.347       .  A
N893       Cu901   2.077       .  S
N894        C895   1.346       .  A
N894       Cu900   2.078       .  S
C895        C896   1.382       .  A
C895        H898   1.082       .  S
C896        C897   1.382       .  A
C896       C1369   1.482       .  S
C897        H899   1.082       .  S
Cu900       N903   2.078       .  S
Cu901       N911   2.077       .  S
Cu902       N904   2.075       .  S
Cu902       N910   2.077       .  S
N903        N904   1.323       .  A
N903        C907   1.346       .  A
N904        C905   1.345       .  A
C905        C906   1.381       .  A
C905        H908   1.082       .  S
C906        C907   1.382       .  A
C906       C1268   1.480       .  S
C907        H909   1.082       .  S
N910        N911   1.323       .  A
N910        C914   1.347       .  A
N911        C912   1.345       .  A
C912        C913   1.381       .  A
C912        H915   1.082       .  S
C913        C914   1.383       .  A
C914        H916   1.082       .  S
N917        N918   1.322       .  A
N917        C921   1.345       .  A
N917       Cu925   2.071       .  S
N918        C919   1.344       .  A
N918       Cu924   2.064       .  S
C919        C920   1.380       .  A
C919        H922   1.082       .  S
C920        C921   1.381       .  A
C920       C1199   1.476       .  S
C921        H923   1.082       .  S
Cu924       N927   2.064       .  S
Cu925       N935   2.071       .  S
Cu926       N928   2.066       .  S
Cu926       N934   2.066       .  S
N927        N928   1.322       .  A
N927        C931   1.342       .  A
N928        C929   1.345       .  A
C929        C930   1.380       .  A
C929        H932   1.082       .  S
C930        C931   1.379       .  A
C930       C1265   1.474       .  S
C931        H933   1.082       .  S
N934        N935   1.323       .  A
N934        C938   1.344       .  A
N935        C936   1.344       .  A
C936        C937   1.380       .  A
C936        H939   1.082       .  S
C937        C938   1.379       .  A
C937       C1010   1.474       .  S
C938        H940   1.082       .  S
N941        N942   1.323       .  A
N941        C945   1.345       .  A
N941       Cu949   2.073       .  S
N942        C943   1.343       .  A
N942       Cu948   2.064       .  S
C943        C944   1.378       .  A
C943        H946   1.082       .  S
C944        C945   1.380       .  A
C944       C1012   1.474       .  S
C945        H947   1.082       .  S
Cu948       N951   2.064       .  S
Cu949       N959   2.073       .  S
Cu950       N952   2.072       .  S
Cu950       N958   2.073       .  S
N951        N952   1.322       .  A
N951        C955   1.344       .  A
N952        C953   1.345       .  A
C953        C954   1.381       .  A
C953        H956   1.082       .  S
C954        C955   1.380       .  A
C955        H957   1.082       .  S
N958        N959   1.323       .  A
N958        C962   1.345       .  A
N959        C960   1.345       .  A
C960        C961   1.381       .  A
C960        H963   1.082       .  S
C961        C962   1.381       .  A
C962        H964   1.082       .  S
N965        N966   1.323       .  A
N965        C969   1.345       .  A
N965       Cu973   2.072       .  S
N966        C967   1.345       .  A
N966       Cu972   2.077       .  S
C967        C968   1.381       .  A
C967        H970   1.082       .  S
C968        C969   1.380       .  A
C968       C1404   1.478       .  S
C969        H971   1.082       .  S
Cu972       N975   2.077       .  S
Cu973       N983   2.071       .  S
Cu974       N976   2.074       .  S
Cu974       N982   2.073       .  S
N975        N976   1.323       .  A
N975        C979   1.346       .  A
N976        C977   1.345       .  A
C977        C978   1.381       .  A
C977        H980   1.082       .  S
C978        C979   1.382       .  A
C978       C1335   1.481       .  S
C979        H981   1.082       .  S
N982        N983   1.323       .  A
N982        C986   1.345       .  A
N983        C984   1.345       .  A
C984        C985   1.381       .  A
C984        H987   1.082       .  S
C985        C986   1.381       .  A
C985       C1011   1.477       .  S
C986        H988   1.082       .  S
N989        C994   1.352       .  A
N989        C993   1.354       .  A
N989       H1021   1.033       .  S
N990        C997   1.351       .  A
N990        C998   1.350   1_455  A
N991        C996   1.354       .  A
N991        C995   1.353       .  A
N991       H1022   1.035       .  S
N992        C999   1.350       .  A
N992       C1000   1.351   1_455  A
C993       C1001   1.388       .  A
C993       C1009   1.417       .  A
C994       C1010   1.416       .  A
C994       C1002   1.387       .  A
C995       C1003   1.388       .  A
C995       C1012   1.416       .  A
C996       C1011   1.416       .  A
C996       C1004   1.387       .  A
C997       C1009   1.413       .  A
C997       C1005   1.387       .  A
C998       C1012   1.411       .  A
C998       C1006   1.387       .  A
C999       C1007   1.387       .  A
C999       C1010   1.413       .  A
C1000      C1008   1.386       .  A
C1000      C1011   1.411       .  A
C1001      C1002   1.373       .  A
C1001      H1013   1.082       .  S
C1002      H1014   1.082       .  S
C1003      C1004   1.374       .  A
C1003      H1015   1.082       .  S
C1004      H1016   1.082       .  S
C1005      C1006   1.372   1_455  A
C1005      H1017   1.082       .  S
C1006      H1018   1.082       .  S
C1007      C1008   1.372   1_455  A
C1007      H1019   1.082       .  S
C1008      H1020   1.082       .  S
C1009      C1060   1.478       .  S
N1023      N1024   1.322       .  A
N1023      C1027   1.343       .  A
N1023     Cu1031   2.070       .  S
N1024      C1025   1.345       .  A
N1024     Cu1030   2.066       .  S
C1025      C1026   1.381       .  A
C1025      H1028   1.082       .  S
C1026      C1027   1.380       .  A
C1026      C1198   1.476       .  S
C1027      H1029   1.082       .  S
Cu1030     N1033   2.066       .  S
Cu1031     N1041   2.071       .  S
Cu1032     N1034   2.079       .  S
Cu1032     N1040   2.079       .  S
N1033      N1034   1.324       .  A
N1033      C1037   1.344       .  A
N1034      C1035   1.346       .  A
C1035      C1036   1.382       .  A
C1035      H1038   1.082       .  S
C1036      C1037   1.378       .  A
C1036      C1302   1.477       .  S
C1037      H1039   1.082       .  S
N1040      N1041   1.322       .  A
N1040      C1044   1.346       .  A
N1041      C1042   1.345       .  A
C1042      C1043   1.381       .  A
C1042      H1045   1.082       .  S
C1043      C1044   1.383       .  A
C1044      H1046   1.082       .  S
N1047      N1048   1.322       .  A
N1047      C1051   1.345       .  A
N1047     Cu1055   2.069       .  S
N1048      C1049   1.344       .  A
N1048     Cu1054   2.066       .  S
C1049      C1050   1.379       .  A
C1049      H1052   1.082       .  S
C1050      C1051   1.381       .  A
C1050      C1164   1.476       .  S
C1051      H1053   1.082       .  S
Cu1054     N1057   2.067       .  S
Cu1055     N1065   2.070       .  S
Cu1056     N1058   2.074       .  S
Cu1056     N1064   2.074       .  S
N1057      N1058   1.323       .  A
N1057      C1061   1.344       .  A
N1058      C1059   1.345       .  A
C1059      C1060   1.382       .  A
C1059      H1062   1.082       .  S
C1060      C1061   1.380       .  A
C1061      H1063   1.082       .  S
N1064      N1065   1.323       .  A
N1064      C1068   1.346       .  A
N1065      C1066   1.344       .  A
C1066      C1067   1.380       .  A
C1066      H1069   1.082       .  S
C1067      C1068   1.381       .  A
C1068      H1070   1.082       .  S
N1071      N1072   1.323       .  A
N1071      C1075   1.346       .  A
N1071     Cu1079   2.075       .  S
N1072      C1073   1.343       .  A
N1072     Cu1078   2.066       .  S
C1073      C1074   1.379       .  A
C1073      H1076   1.082       .  S
C1074      C1075   1.381       .  A
C1074      C1200   1.475       .  S
C1075      H1077   1.082       .  S
Cu1078     N1081   2.066       .  S
Cu1079     N1089   2.076       .  S
Cu1080     N1082   2.063       .  S
Cu1080     N1088   2.063       .  S
N1081      N1082   1.322       .  A
N1081      C1085   1.344       .  A
N1082      C1083   1.343       .  A
C1083      C1084   1.379       .  A
C1083      H1086   1.082       .  S
C1084      C1085   1.381       .  A
C1084      C1234   1.475       .  S
C1085      H1087   1.082       .  S
N1088      N1089   1.323       .  A
N1088      C1092   1.343       .  A
N1089      C1090   1.346       .  A
C1090      C1091   1.382       .  A
C1090      H1093   1.082       .  S
C1091      C1092   1.379       .  A
C1091      C1163   1.477       .  S
C1092      H1094   1.082       .  S
N1095      N1096   1.323       .  A
N1095      C1099   1.345       .  A
N1095     Cu1103   2.075       .  S
N1096      C1097   1.344       .  A
N1096     Cu1102   2.064       .  S
C1097      C1098   1.379       .  A
C1097      H1100   1.082       .  S
C1098      C1099   1.382       .  A
C1098      C1165   1.476       .  S
C1099      H1101   1.082       .  S
Cu1102     N1105   2.064       .  S
Cu1103     N1113   2.076       .  S
Cu1104     N1106   2.079       .  S
Cu1104     N1112   2.079       .  S
N1105      N1106   1.323       .  A
N1105      C1109   1.343       .  A
N1106      C1107   1.347       .  A
C1107      C1108   1.383       .  A
C1107      H1110   1.082       .  S
C1108      C1109   1.379       .  A
C1109      H1111   1.082       .  S
N1112      N1113   1.323       .  A
N1112      C1116   1.346       .  A
N1113      C1114   1.346       .  A
C1114      C1115   1.382       .  A
C1114      H1117   1.082       .  S
C1115      C1116   1.382       .  A
C1116      H1118   1.082       .  S
N1119      N1120   1.323       .  A
N1119      C1123   1.345       .  A
N1119     Cu1127   2.077       .  S
N1120      C1121   1.345       .  A
N1120     Cu1126   2.072       .  S
C1121      C1122   1.380       .  A
C1121      H1124   1.082       .  S
C1122      C1123   1.381       .  A
C1122      C1166   1.479       .  S
C1123      H1125   1.082       .  S
Cu1126     N1129   2.072       .  S
Cu1127     N1137   2.077       .  S
Cu1128     N1130   2.071       .  S
Cu1128     N1136   2.070       .  S
N1129      N1130   1.322       .  A
N1129      C1133   1.345       .  A
N1130      C1131   1.345       .  A
C1131      C1132   1.381       .  A
C1131      H1134   1.082       .  S
C1132      C1133   1.382       .  A
C1132      C1370   1.480       .  S
C1133      H1135   1.082       .  S
N1136      N1137   1.323       .  A
N1136      C1140   1.344       .  A
N1137      C1138   1.346       .  A
C1138      C1139   1.383       .  A
C1138      H1141   1.082       .  S
C1139      C1140   1.380       .  A
C1139      C1438   1.481       .  S
C1140      H1142   1.082       .  S
N1143      C1148   1.355       .  A
N1143      C1147   1.354       .  A
N1143      H1175   1.036       .  S
N1144      C1151   1.351   1_556  A
N1144      C1152   1.351       .  A
N1145      C1150   1.355       .  A
N1145      C1149   1.355       .  A
N1145      H1176   1.034       .  S
N1146      C1153   1.349   1_556  A
N1146      C1154   1.350       .  A
C1147      C1155   1.388       .  A
C1147      C1163   1.417       .  A
C1148      C1164   1.417       .  A
C1148      C1156   1.387       .  A
C1149      C1157   1.387       .  A
C1149      C1166   1.418       .  A
C1150      C1165   1.418       .  A
C1150      C1158   1.388       .  A
C1151      C1163   1.413       .  A
C1151      C1159   1.386   1_554  A
C1152      C1166   1.415       .  A
C1152      C1160   1.387       .  A
C1153      C1161   1.387   1_554  A
C1153      C1164   1.411       .  A
C1154      C1162   1.387       .  A
C1154      C1165   1.412       .  A
C1155      C1156   1.371       .  A
C1155      H1167   1.082       .  S
C1156      H1168   1.082       .  S
C1157      C1158   1.371       .  A
C1157      H1169   1.082       .  S
C1158      H1170   1.082       .  S
C1159      C1160   1.371       .  A
C1159      H1171   1.082   1_556  S
C1160      H1172   1.082       .  S
C1161      C1162   1.371       .  A
C1161      H1173   1.082   1_556  S
C1162      H1174   1.082       .  S
N1177      C1182   1.352       .  A
N1177      C1181   1.353       .  A
N1177      H1209   1.034       .  S
N1178      C1185   1.351       .  A
N1178      C1186   1.351       .  A
N1179      C1184   1.353       .  A
N1179      C1183   1.352       .  A
N1179      H1210   1.036       .  S
N1180      C1187   1.351       .  A
N1180      C1188   1.351       .  A
C1181      C1189   1.388       .  A
C1181      C1197   1.417       .  A
C1182      C1198   1.417       .  A
C1182      C1190   1.388       .  A
C1183      C1191   1.388       .  A
C1183      C1200   1.415       .  A
C1184      C1199   1.414       .  A
C1184      C1192   1.387       .  A
C1185      C1197   1.415       .  A
C1185      C1193   1.387       .  A
C1186      C1200   1.412       .  A
C1186      C1194   1.386       .  A
C1187      C1195   1.387       .  A
C1187      C1198   1.414       .  A
C1188      C1196   1.386       .  A
C1188      C1199   1.411       .  A
C1189      C1190   1.375       .  A
C1189      H1201   1.082       .  S
C1190      H1202   1.082       .  S
C1191      C1192   1.373       .  A
C1191      H1203   1.082       .  S
C1192      H1204   1.082       .  S
C1193      C1194   1.372       .  A
C1193      H1205   1.082       .  S
C1194      H1206   1.082       .  S
C1195      C1196   1.372       .  A
C1195      H1207   1.082       .  S
C1196      H1208   1.082       .  S
N1211      C1216   1.354       .  A
N1211      C1215   1.355       .  A
N1211      H1243   1.035       .  S
N1212      C1219   1.350       .  A
N1212      C1220   1.350       .  A
N1213      C1218   1.355       .  A
N1213      C1217   1.354       .  A
N1213      H1244   1.034       .  S
N1214      C1221   1.349       .  A
N1214      C1222   1.349       .  A
C1215      C1223   1.387       .  A
C1215      C1231   1.417       .  A
C1216      C1232   1.417       .  A
C1216      C1224   1.388       .  A
C1217      C1225   1.388       .  A
C1217      C1234   1.418       .  A
C1218      C1233   1.417       .  A
C1218      C1226   1.387       .  A
C1219      C1231   1.413       .  A
C1219      C1227   1.386       .  A
C1220      C1234   1.413       .  A
C1220      C1228   1.387       .  A
C1221      C1229   1.387       .  A
C1221      C1232   1.411       .  A
C1222      C1230   1.387       .  A
C1222      C1233   1.412       .  A
C1223      C1224   1.370       .  A
C1223      H1235   1.082       .  S
C1224      H1236   1.082       .  S
C1225      C1226   1.371       .  A
C1225      H1237   1.082       .  S
C1226      H1238   1.082       .  S
C1227      C1228   1.371       .  A
C1227      H1239   1.082       .  S
C1228      H1240   1.082       .  S
C1229      C1230   1.371       .  A
C1229      H1241   1.082       .  S
C1230      H1242   1.082       .  S
N1245      C1250   1.355       .  A
N1245      C1249   1.354       .  A
N1245      H1277   1.035       .  S
N1246      C1253   1.350       .  A
N1246      C1254   1.351       .  A
N1247      C1252   1.355       .  A
N1247      C1251   1.356       .  A
N1247      H1278   1.036       .  S
N1248      C1255   1.350       .  A
N1248      C1256   1.349       .  A
C1249      C1257   1.388       .  A
C1249      C1265   1.417       .  A
C1250      C1266   1.417       .  A
C1250      C1258   1.387       .  A
C1251      C1259   1.387       .  A
C1251      C1268   1.418       .  A
C1252      C1267   1.418       .  A
C1252      C1260   1.388       .  A
C1253      C1265   1.413       .  A
C1253      C1261   1.387       .  A
C1254      C1268   1.413       .  A
C1254      C1262   1.386       .  A
C1255      C1263   1.386       .  A
C1255      C1266   1.412       .  A
C1256      C1264   1.387       .  A
C1256      C1267   1.412       .  A
C1257      C1258   1.371       .  A
C1257      H1269   1.082       .  S
C1258      H1270   1.082       .  S
C1259      C1260   1.371       .  A
C1259      H1271   1.082       .  S
C1260      H1272   1.082       .  S
C1261      C1262   1.370       .  A
C1261      H1273   1.082       .  S
C1262      H1274   1.082       .  S
C1263      C1264   1.371       .  A
C1263      H1275   1.082       .  S
C1264      H1276   1.082       .  S
N1279      C1284   1.355       .  A
N1279      C1283   1.355       .  A
N1279      H1311   1.034       .  S
N1280      C1287   1.350       .  A
N1280      C1288   1.350       .  A
N1281      C1286   1.354       .  A
N1281      C1285   1.355       .  A
N1281      H1312   1.033       .  S
N1282      C1289   1.350       .  A
N1282      C1290   1.350       .  A
C1283      C1291   1.388       .  A
C1283      C1299   1.419       .  A
C1284      C1300   1.417       .  A
C1284      C1292   1.387       .  A
C1285      C1293   1.387       .  A
C1285      C1302   1.418       .  A
C1286      C1301   1.419       .  A
C1286      C1294   1.388       .  A
C1287      C1299   1.413       .  A
C1287      C1295   1.387       .  A
C1288      C1302   1.413       .  A
C1288      C1296   1.387       .  A
C1289      C1297   1.387       .  A
C1289      C1300   1.413       .  A
C1290      C1298   1.387       .  A
C1290      C1301   1.414       .  A
C1291      C1292   1.372       .  A
C1291      H1303   1.082       .  S
C1292      H1304   1.082       .  S
C1293      C1294   1.371       .  A
C1293      H1305   1.082       .  S
C1294      H1306   1.082       .  S
C1295      C1296   1.371       .  A
C1295      H1307   1.082       .  S
C1296      H1308   1.082       .  S
C1297      C1298   1.372       .  A
C1297      H1309   1.082       .  S
C1298      H1310   1.082       .  S
N1313      C1318   1.355       .  A
N1313      C1317   1.356       .  A
N1313      H1345   1.035       .  S
N1314      C1321   1.351       .  A
N1314      C1322   1.350       .  A
N1315      C1320   1.356       .  A
N1315      C1319   1.355       .  A
N1315      H1346   1.035       .  S
N1316      C1323   1.351       .  A
N1316      C1324   1.351       .  A
C1317      C1325   1.388       .  A
C1317      C1333   1.419       .  A
C1318      C1334   1.419       .  A
C1318      C1326   1.388       .  A
C1319      C1327   1.388       .  A
C1319      C1336   1.419       .  A
C1320      C1335   1.419       .  A
C1320      C1328   1.387       .  A
C1321      C1333   1.414       .  A
C1321      C1329   1.387       .  A
C1322      C1336   1.414       .  A
C1322      C1330   1.387       .  A
C1323      C1331   1.387       .  A
C1323      C1334   1.415       .  A
C1324      C1332   1.386       .  A
C1324      C1335   1.415       .  A
C1325      C1326   1.372       .  A
C1325      H1337   1.082       .  S
C1326      H1338   1.082       .  S
C1327      C1328   1.372       .  A
C1327      H1339   1.082       .  S
C1328      H1340   1.082       .  S
C1329      C1330   1.372       .  A
C1329      H1341   1.082       .  S
C1330      H1342   1.082       .  S
C1331      C1332   1.372       .  A
C1331      H1343   1.082       .  S
C1332      H1344   1.082       .  S
N1347      C1352   1.357       .  A
N1347      C1351   1.357       .  A
N1347      H1379   1.036       .  S
N1348      C1355   1.351       .  A
N1348      C1356   1.351       .  A
N1349      C1354   1.356       .  A
N1349      C1353   1.355       .  A
N1349      H1380   1.036       .  S
N1350      C1357   1.351       .  A
N1350      C1358   1.352       .  A
C1351      C1359   1.387       .  A
C1351      C1367   1.420       .  A
C1352      C1368   1.420       .  A
C1352      C1360   1.388       .  A
C1353      C1361   1.388       .  A
C1353      C1370   1.419       .  A
C1354      C1369   1.419       .  A
C1354      C1362   1.387       .  A
C1355      C1367   1.415       .  A
C1355      C1363   1.387       .  A
C1356      C1370   1.414       .  A
C1356      C1364   1.387       .  A
C1357      C1365   1.387       .  A
C1357      C1368   1.415       .  A
C1358      C1366   1.386       .  A
C1358      C1369   1.415       .  A
C1359      C1360   1.372       .  A
C1359      H1371   1.082       .  S
C1360      H1372   1.082       .  S
C1361      C1362   1.371       .  A
C1361      H1373   1.082       .  S
C1362      H1374   1.082       .  S
C1363      C1364   1.372       .  A
C1363      H1375   1.082       .  S
C1364      H1376   1.082       .  S
C1365      C1366   1.372       .  A
C1365      H1377   1.082       .  S
C1366      H1378   1.082       .  S
N1381      C1386   1.356       .  A
N1381      C1385   1.356       .  A
N1381      H1413   1.035       .  S
N1382      C1389   1.350       .  A
N1382      C1390   1.351       .  A
N1383      C1388   1.355       .  A
N1383      C1387   1.355       .  A
N1383      H1414   1.035       .  S
N1384      C1391   1.351       .  A
N1384      C1392   1.351       .  A
C1385      C1393   1.387       .  A
C1385      C1401   1.419       .  A
C1386      C1402   1.419       .  A
C1386      C1394   1.387       .  A
C1387      C1395   1.387       .  A
C1387      C1404   1.418       .  A
C1388      C1403   1.419       .  A
C1388      C1396   1.388       .  A
C1389      C1401   1.414       .  A
C1389      C1397   1.387       .  A
C1390      C1404   1.413       .  A
C1390      C1398   1.387       .  A
C1391      C1399   1.387       .  A
C1391      C1402   1.414       .  A
C1392      C1400   1.387       .  A
C1392      C1403   1.414       .  A
C1393      C1394   1.372       .  A
C1393      H1405   1.082       .  S
C1394      H1406   1.082       .  S
C1395      C1396   1.372       .  A
C1395      H1407   1.082       .  S
C1396      H1408   1.082       .  S
C1397      C1398   1.371       .  A
C1397      H1409   1.082       .  S
C1398      H1410   1.082       .  S
C1399      C1400   1.371       .  A
C1399      H1411   1.082       .  S
C1400      H1412   1.082       .  S
N1415      C1420   1.357       .  A
N1415      C1419   1.355       .  A
N1415      H1447   1.036       .  S
N1416      C1423   1.351       .  A
N1416      C1424   1.351       .  A
N1417      C1422   1.355       .  A
N1417      C1421   1.356       .  A
N1417      H1448   1.036       .  S
N1418      C1425   1.350       .  A
N1418      C1426   1.349       .  A
C1419      C1427   1.387       .  A
C1419      C1435   1.418       .  A
C1420      C1436   1.418       .  A
C1420      C1428   1.387       .  A
C1421      C1429   1.387       .  A
C1421      C1438   1.418       .  A
C1422      C1437   1.418       .  A
C1422      C1430   1.388       .  A
C1423      C1435   1.414       .  A
C1423      C1431   1.387       .  A
C1424      C1438   1.414       .  A
C1424      C1432   1.387       .  A
C1425      C1433   1.387       .  A
C1425      C1436   1.411       .  A
C1426      C1434   1.387       .  A
C1426      C1437   1.412       .  A
C1427      C1428   1.371       .  A
C1427      H1439   1.082       .  S
C1428      H1440   1.082       .  S
C1429      C1430   1.371       .  A
C1429      H1441   1.082       .  S
C1430      H1442   1.082       .  S
C1431      C1432   1.371       .  A
C1431      H1443   1.082       .  S
C1432      H1444   1.082       .  S
C1433      C1434   1.371       .  A
C1433      H1445   1.082       .  S
C1434      H1446   1.082       .  S
N1449      C1454   1.356       .  A
N1449      C1453   1.355       .  A
N1449      H1481   1.037       .  S
N1450      C1457   1.351       .  A
N1450      C1458   1.352       .  A
N1451      C1456   1.355       .  A
N1451      C1455   1.356       .  A
N1451      H1482   1.035       .  S
N1452      C1459   1.350       .  A
N1452      C1460   1.349       .  A
C1453      C1461   1.387       .  A
C1453      C1469   1.417       .  A
C1454      C1470   1.418       .  A
C1454      C1462   1.387       .  A
C1455      C1463   1.387       .  A
C1455      C1472   1.419       .  A
C1456      C1471   1.419       .  A
C1456      C1464   1.388       .  A
C1457      C1469   1.414       .  A
C1457      C1465   1.387       .  A
C1458      C1472   1.414       .  A
C1458      C1466   1.386       .  A
C1459      C1467   1.386       .  A
C1459      C1470   1.412       .  A
C1460      C1468   1.388       .  A
C1460      C1471   1.413       .  A
C1461      C1462   1.371       .  A
C1461      H1473   1.082       .  S
C1462      H1474   1.082       .  S
C1463      C1464   1.371       .  A
C1463      H1475   1.082       .  S
C1464      H1476   1.082       .  S
C1465      C1466   1.370       .  A
C1465      H1477   1.082       .  S
C1466      H1478   1.082       .  S
C1467      C1468   1.372       .  A
C1467      H1479   1.082       .  S
C1468      H1480   1.082       .  S
N1483      C1488   1.354       .  A
N1483      C1487   1.354       .  A
N1483      H1515   1.037       .  S
N1484      C1491   1.351       .  A
N1484      C1492   1.351       .  A
N1485      C1490   1.354       .  A
N1485      C1489   1.355       .  A
N1485      H1516   1.036       .  S
N1486      C1493   1.351       .  A
N1486      C1494   1.351       .  A
C1487      C1495   1.388       .  A
C1487      C1503   1.417       .  A
C1488      C1504   1.415       .  A
C1488      C1496   1.387       .  A
C1489      C1497   1.387       .  A
C1489      C1506   1.418       .  A
C1490      C1505   1.418       .  A
C1490      C1498   1.388       .  A
C1491      C1503   1.413       .  A
C1491      C1499   1.386       .  A
C1492      C1506   1.414       .  A
C1492      C1500   1.387       .  A
C1493      C1501   1.386       .  A
C1493      C1504   1.411       .  A
C1494      C1502   1.387       .  A
C1494      C1505   1.414       .  A
C1495      C1496   1.375       .  A
C1495      H1507   1.082       .  S
C1496      H1508   1.082       .  S
C1497      C1498   1.375       .  A
C1497      H1509   1.081       .  S
C1498      H1510   1.081       .  S
C1499      C1500   1.374       .  A
C1499      H1511   1.082       .  S
C1500      H1512   1.082       .  S
C1501      C1502   1.373       .  A
C1501      H1513   1.082       .  S
C1502      H1514   1.082       .  S
N1517      C1522   1.356       .  A
N1517      C1521   1.355       .  A
N1517      H1549   1.035       .  S
N1518      C1525   1.351       .  A
N1518      C1526   1.351       .  A
N1519      C1524   1.355       .  A
N1519      C1523   1.356       .  A
N1519      H1550   1.036       .  S
N1520      C1527   1.351       .  A
N1520      C1528   1.350       .  A
C1521      C1529   1.388       .  A
C1521      C1537   1.418       .  A
C1522      C1538   1.418       .  A
C1522      C1530   1.387       .  A
C1523      C1531   1.387       .  A
C1523      C1540   1.418       .  A
C1524      C1539   1.419       .  A
C1524      C1532   1.388       .  A
C1525      C1537   1.414       .  A
C1525      C1533   1.387       .  A
C1526      C1540   1.414       .  A
C1526      C1534   1.387       .  A
C1527      C1535   1.387       .  A
C1527      C1538   1.413       .  A
C1528      C1536   1.387       .  A
C1528      C1539   1.413       .  A
C1529      C1530   1.371       .  A
C1529      H1541   1.082       .  S
C1530      H1542   1.082       .  S
C1531      C1532   1.371       .  A
C1531      H1543   1.082       .  S
C1532      H1544   1.082       .  S
C1533      C1534   1.371       .  A
C1533      H1545   1.082       .  S
C1534      H1546   1.082       .  S
C1535      C1536   1.371       .  A
C1535      H1547   1.082       .  S
C1536      H1548   1.082       .  S
N1551      C1556   1.356       .  A
N1551      C1555   1.355       .  A
N1551      H1583   1.035       .  S
N1552      C1559   1.351       .  A
N1552      C1560   1.351       .  A
N1553      C1558   1.356       .  A
N1553      C1557   1.355       .  A
N1553      H1584   1.036       .  S
N1554      C1561   1.351       .  A
N1554      C1562   1.351       .  A
C1555      C1563   1.388       .  A
C1555      C1571   1.419       .  A
C1556      C1572   1.418       .  A
C1556      C1564   1.387       .  A
C1557      C1565   1.387       .  A
C1557      C1574   1.418       .  A
C1558      C1573   1.418       .  A
C1558      C1566   1.387       .  A
C1559      C1571   1.414       .  A
C1559      C1567   1.387       .  A
C1560      C1574   1.414       .  A
C1560      C1568   1.386       .  A
C1561      C1569   1.387       .  A
C1561      C1572   1.414       .  A
C1562      C1570   1.387       .  A
C1562      C1573   1.413       .  A
C1563      C1564   1.372       .  A
C1563      H1575   1.082       .  S
C1564      H1576   1.082       .  S
C1565      C1566   1.372       .  A
C1565      H1577   1.082       .  S
C1566      H1578   1.082       .  S
C1567      C1568   1.372       .  A
C1567      H1579   1.082       .  S
C1568      H1580   1.082       .  S
C1569      C1570   1.371       .  A
C1569      H1581   1.082       .  S
C1570      H1582   1.082       .  S
