geometry optimzed in LAMMPS
_audit_creation_date              2020-12-01 
_audit_creation_method            'lammps2cif' 
_symmetry_space_group_name_H-M    'P1' 
_symmetry_Int_Tables_number       1 
_symmetry_cell_setting            triclinic 
loop_ 
_symmetry_equiv_pos_as_xyz 
  x,y,z 
_cell_length_a                    53.87348607 
_cell_length_b                    53.88492869339007 
_cell_length_c                    53.88185148562366 
_cell_angle_alpha                 90.01267489762333 
_cell_angle_beta                  89.94974130559238 
_cell_angle_gamma                 90.01284149150096 
loop_ 
_atom_site_label 
_atom_site_type_symbol 
_atom_site_fract_x 
_atom_site_fract_y 
_atom_site_fract_z 
_atom_site_charge 
N1          N  0.66964673  0.72409150  0.74152854    -0.25500
N2          N  0.66963543  0.74138946  0.72410968    -0.33400
C3          C  0.64992963  0.75633243  0.72750012     0.02800
C4          C  0.63707681  0.74796278  0.74799362     0.08900
C5          C  0.64994699  0.72754965  0.75648207    -0.04200
H6          H  0.64518254  0.77188557  0.71572436     0.09500
H7          H  0.64521819  0.71587476  0.77212612     0.10700
Cu8        Cu  0.69592362  0.74349423  0.69613318     0.44200
Cu9        Cu  0.69597150  0.69619343  0.74379780     0.42000
Cu10       Cu  0.74351140  0.69606589  0.69629447     0.43900
N11         N  0.72394701  0.74128778  0.66990292    -0.32900
N12         N  0.74132767  0.72394794  0.66995217    -0.27100
C13         C  0.75632078  0.72735694  0.65027591    -0.03200
C14         C  0.74789894  0.74778118  0.63738300     0.09000
C15         C  0.72740363  0.75620888  0.65019569     0.02800
H16         H  0.77194652  0.71564191  0.64557873     0.10400
H17         H  0.71567005  0.77178627  0.64542014     0.09500
N18         N  0.74142849  0.66998918  0.72443706    -0.34300
N19         N  0.72405445  0.67003861  0.74180302    -0.26500
C20         C  0.72752163  0.65044247  0.75685870    -0.01800
C21         C  0.74801878  0.63759953  0.74849185     0.06900
C22         C  0.75642923  0.65036030  0.72796391     0.04900
H23         H  0.71576461  0.64573257  0.77245610     0.10100
H24         H  0.77201988  0.64557314  0.71622769     0.08900
N25         N  0.66981656  0.26394296  0.74141788    -0.25500
N26         N  0.66977384  0.24662598  0.72400828    -0.33400
C27         C  0.65006052  0.23169104  0.72743336     0.02800
C28         C  0.63723601  0.24008443  0.74793762     0.08900
C29         C  0.65013198  0.26050298  0.75639709    -0.04200
H30         H  0.64528311  0.21613250  0.71566739     0.09500
H31         H  0.64542305  0.27220209  0.77203266     0.10700
Cu32       Cu  0.69601316  0.24448419  0.69597428     0.44200
Cu33       Cu  0.69613025  0.29187602  0.74363342     0.42000
Cu34       Cu  0.74354793  0.29195770  0.69601464     0.43900
N35         N  0.72400557  0.24666143  0.66969298    -0.32900
N36         N  0.74137315  0.26402219  0.66970322    -0.27100
C37         C  0.75634526  0.26060289  0.65001016    -0.03200
C38         C  0.74792464  0.24015041  0.63714161     0.09000
C39         C  0.72745059  0.23171661  0.64999313     0.02800
H40         H  0.77195356  0.27233332  0.64528142     0.10400
H41         H  0.71572115  0.21612025  0.64524543     0.09500
N42         N  0.74150521  0.31811300  0.72410828    -0.34300
N43         N  0.72417767  0.31807920  0.74152099    -0.26500
C44         C  0.72767053  0.33771328  0.75653411    -0.01800
C45         C  0.74813501  0.35056696  0.74809066     0.06900
C46         C  0.75649989  0.33776958  0.72756193     0.04900
H47         H  0.71595941  0.34243496  0.77216302     0.10100
H48         H  0.77206367  0.34254254  0.71578374     0.08900
N49         N  0.24640543  0.31806959  0.72396218    -0.25500
N50         N  0.26371873  0.31808969  0.74135715    -0.33400
C51         C  0.26024034  0.33777958  0.75629999     0.02800
C52         C  0.23979693  0.35060976  0.74782869     0.08900
C53         C  0.23143103  0.33774754  0.72735562    -0.04200
H54         H  0.27191380  0.34252142  0.77193207     0.09500
H55         H  0.21584907  0.34245857  0.71560676     0.10700
Cu56       Cu  0.29163631  0.29180158  0.74362611     0.44200
Cu57       Cu  0.24427949  0.29173578  0.69605897     0.42000
Cu58       Cu  0.29159521  0.24407990  0.69630539     0.43900
N59         N  0.31778211  0.26372722  0.74161563    -0.32900
N60         N  0.31777080  0.24629156  0.72432625    -0.27100
C61         C  0.33740308  0.23129545  0.72785114    -0.03200
C62         C  0.35022429  0.23977479  0.74829771     0.09000
C63         C  0.33742007  0.26030635  0.75661812     0.02800
H64         H  0.34213911  0.21564963  0.71617896     0.10400
H65         H  0.34217185  0.27210535  0.77215871     0.09500
N66         N  0.26364476  0.24618355  0.67004698    -0.34300
N67         N  0.24635028  0.26360776  0.66995820    -0.26500
C68         C  0.23138193  0.26011555  0.65030395    -0.01800
C69         C  0.23972946  0.23954820  0.63756904     0.06900
C70         C  0.26015849  0.23112304  0.65045053     0.04900
H71         H  0.21583809  0.27188290  0.64550039     0.10100
H72         H  0.27183816  0.21546355  0.64578510     0.08900
N73         N  0.24631447  0.66990136  0.72393713    -0.25500
N74         N  0.26369965  0.66991527  0.74126037    -0.33400
C75         C  0.26029414  0.65023350  0.75622419     0.02800
C76         C  0.23982378  0.63737454  0.74784162     0.08900
C77         C  0.23136581  0.65021079  0.72739875    -0.04200
H78         H  0.27203333  0.64551744  0.77181089     0.09500
H79         H  0.21573903  0.64547344  0.71571499     0.10700
Cu80       Cu  0.29160832  0.69624333  0.74341311     0.44200
Cu81       Cu  0.24406393  0.69619909  0.69602911     0.42000
Cu82       Cu  0.29137451  0.74390525  0.69608187     0.43900
N83         N  0.31771284  0.72436890  0.74133161    -0.32900
N84         N  0.31762916  0.74178920  0.72403517    -0.27100
C85         C  0.33723782  0.75683927  0.72751231    -0.03200
C86         C  0.35012155  0.74841143  0.74793623     0.09000
C87         C  0.33737571  0.72785395  0.75629153     0.02800
H88         H  0.34191208  0.77249085  0.71582712     0.10400
H89         H  0.34218019  0.71608535  0.77183200     0.09500
N90         N  0.26335610  0.74171063  0.66990122    -0.34300
N91         N  0.24606517  0.72427449  0.66988552    -0.26500
C92         C  0.23105444  0.72770508  0.65025624    -0.01800
C93         C  0.23937093  0.74824483  0.63746203     0.06900
C94         C  0.25982463  0.75671750  0.65028076     0.04900
H95         H  0.21550776  0.71591045  0.64550624     0.10100
H96         H  0.27149397  0.77236928  0.64555339     0.08900
N97         N  0.31801351  0.72412503  0.24636248    -0.25500
N98         N  0.31802214  0.74142751  0.26378585    -0.33400
C99         C  0.33771902  0.75639259  0.26038491     0.02800
C100        C  0.35057262  0.74803622  0.23988052     0.08900
C101        C  0.33770481  0.72760549  0.23139722    -0.04200
H102        H  0.34246487  0.77194993  0.27216515     0.09500
H103        H  0.34243725  0.71592704  0.21575334     0.10700
Cu104      Cu  0.29173463  0.74350266  0.29178992     0.44200
Cu105      Cu  0.29171491  0.69616613  0.24413070     0.42000
Cu106      Cu  0.24416141  0.69602839  0.29165821     0.43900
N107        N  0.26367810  0.74132667  0.31801381    -0.32900
N108        N  0.24629718  0.72397790  0.31796881    -0.27100
C109        C  0.23128788  0.72741091  0.33763300    -0.03200
C110        C  0.23969710  0.74785846  0.35051950     0.09000
C111        C  0.26020367  0.75627442  0.33770731     0.02800
H112        H  0.21566464  0.71568939  0.34233456     0.10400
H113        H  0.27193773  0.77185961  0.34247995     0.09500
N114        N  0.24630851  0.66987635  0.26355881    -0.34300
N115        N  0.26368064  0.66993074  0.24618901    -0.26500
C116        C  0.26023800  0.65030023  0.23115736    -0.01800
C117        C  0.23976056  0.63742603  0.23954090     0.06900
C118        C  0.23133648  0.65020954  0.26005581     0.04900
H119        H  0.27198696  0.64559952  0.21555064     0.10100
H120        H  0.21574152  0.64542370  0.27178754     0.08900
N121        N  0.72397456  0.66991666  0.24656585    -0.25500
N122        N  0.74125908  0.66990448  0.26398948    -0.33400
C123        C  0.75622331  0.65021844  0.26060679     0.02800
C124        C  0.74788310  0.63738040  0.24011025     0.08900
C125        C  0.72746358  0.65023469  0.23161322    -0.04200
H126        H  0.77178072  0.64548527  0.27237955     0.09500
H127        H  0.71581540  0.64551611  0.21595545     0.10700
Cu128      Cu  0.74336006  0.69619423  0.29192220     0.44200
Cu129      Cu  0.69608894  0.69625074  0.24426636     0.42000
Cu130      Cu  0.69608266  0.74391453  0.29161493     0.43900
N131        N  0.74122294  0.72426612  0.31806270    -0.32900
N132        N  0.72394570  0.74170760  0.31795717    -0.27100
C133        C  0.72739397  0.75672815  0.33758990    -0.03200
C134        C  0.74777861  0.74825651  0.35050864     0.09000
C135        C  0.75614126  0.72770592  0.33776190     0.02800
H136        H  0.71572677  0.77239986  0.34224516     0.10400
H137        H  0.77166815  0.71592162  0.34257908     0.09500
N138        N  0.66998784  0.74180707  0.26351036    -0.34300
N139        N  0.66998775  0.72438573  0.24620689    -0.26500
C140        C  0.65039266  0.72785937  0.23115745    -0.01800
C141        C  0.63760464  0.74841109  0.23946165     0.06900
C142        C  0.65039355  0.75684541  0.25994857     0.04900
H143        H  0.64564955  0.71607494  0.21560330     0.10100
H144        H  0.64565117  0.77248108  0.27163183     0.08900
N145        N  0.74126212  0.31806956  0.26393144    -0.25500
N146        N  0.72389924  0.31812050  0.24658599    -0.33400
C147        C  0.72736335  0.33782322  0.23166190     0.02800
C148        C  0.74784818  0.35062725  0.24009575     0.08900
C149        C  0.75625290  0.33773717  0.26052600    -0.04200
H150        H  0.71565405  0.34259072  0.21606840     0.09500
H151        H  0.77187469  0.34242125  0.27223781     0.10700
Cu152      Cu  0.69593667  0.29185240  0.24436300     0.44200
Cu153      Cu  0.74343981  0.29171014  0.29178491     0.42000
Cu154      Cu  0.69603358  0.24410160  0.29161094     0.43900
N155        N  0.66974505  0.26380166  0.24640179    -0.32900
N156        N  0.66977686  0.24635386  0.26367089    -0.27100
C157        C  0.65013065  0.23136018  0.26016317    -0.03200
C158        C  0.63727613  0.23985236  0.23974761     0.09000
C159        C  0.65007849  0.26039028  0.23142890     0.02800
H160        H  0.64541962  0.21569400  0.27181408     0.10400
H161        H  0.64531727  0.27218795  0.21589720     0.09500
N162        N  0.72407087  0.24615666  0.31778127    -0.34300
N163        N  0.74139427  0.26356029  0.31784239    -0.26500
C164        C  0.75639756  0.26005169  0.33746276    -0.01800
C165        C  0.74804250  0.23949504  0.35020337     0.06900
C166        C  0.72757364  0.23109263  0.33736304     0.04900
H167        H  0.77195830  0.27181242  0.34225049     0.10100
H168        H  0.71586731  0.21545862  0.34205751     0.08900
N169        N  0.79621700  0.54453486  0.79668965    -0.25500
N170        N  0.78115738  0.53240802  0.78155078    -0.33400
C171        C  0.76790030  0.54890292  0.76832535     0.02800
C172        C  0.77502953  0.57239003  0.77555945     0.08900
C173        C  0.79294691  0.56907229  0.79350307    -0.04200
H174        H  0.75414081  0.54411424  0.75450710     0.09500
H175        H  0.80288628  0.58336622  0.80350931     0.10700
Cu176      Cu  0.77925349  0.49407554  0.77949415     0.44200
Cu177      Cu  0.82057795  0.52741513  0.82105104     0.42000
Cu178      Cu  0.82058868  0.46065860  0.82102268     0.43900
N179        N  0.78125074  0.45574068  0.78139738    -0.32900
N180        N  0.79629533  0.44358760  0.79652170    -0.27100
C181        C  0.79306587  0.41905512  0.79322233    -0.03200
C182        C  0.77519504  0.41576823  0.77522072     0.09000
C183        C  0.76804837  0.43926966  0.76807210     0.02800
H184        H  0.80299168  0.40474191  0.80320155     0.10400
H185        H  0.75430086  0.44408498  0.75425536     0.09500
N186        N  0.84329915  0.48177398  0.84384821    -0.34300
N187        N  0.84329505  0.50631865  0.84384473    -0.26500
C188        C  0.85996023  0.51448509  0.86055647    -0.01800
C189        C  0.87088330  0.49407601  0.87151104     0.06900
C190        C  0.85997083  0.47364131  0.86056652     0.04900
H191        H  0.86380876  0.53381706  0.86440139     0.10100
H192        H  0.86383352  0.45431750  0.86442087     0.08900
N193        N  0.19152274  0.54445529  0.79634729    -0.25500
N194        N  0.20660483  0.53230577  0.78122706    -0.33400
C195        C  0.21986493  0.54877084  0.76794271     0.02800
C196        C  0.21271795  0.57226718  0.77511300     0.08900
C197        C  0.19478616  0.56898723  0.79308554    -0.04200
H198        H  0.23363319  0.54395387  0.75412070     0.09500
H199        H  0.18482563  0.58330213  0.80305145     0.10700
Cu200      Cu  0.20853645  0.49399338  0.77922060     0.44200
Cu201      Cu  0.16710116  0.52736981  0.82074608     0.42000
Cu202      Cu  0.16711317  0.46062688  0.82076006     0.43900
N203        N  0.20652852  0.45568119  0.78115513    -0.32900
N204        N  0.19145765  0.44353459  0.79628882    -0.27100
C205        C  0.19469072  0.41900194  0.79300161    -0.03200
C206        C  0.21259027  0.41571846  0.77499743     0.09000
C207        C  0.21975008  0.43921361  0.76783552     0.02800
H208        H  0.18474676  0.40468898  0.80298684     0.10400
H209        H  0.23351889  0.44402804  0.75401312     0.09500
N210        N  0.14427735  0.48172691  0.84350619    -0.34300
N211        N  0.14426497  0.50627169  0.84349327    -0.26500
C212        C  0.12750585  0.51442117  0.86014924    -0.01800
C213        C  0.11653977  0.49399974  0.87107517     0.06900
C214        C  0.12752741  0.47357804  0.86017166     0.04900
H215        H  0.12362879  0.53374923  0.86398318     0.10100
H216        H  0.12366847  0.45425012  0.86402455     0.08900
N217        N  0.79654574  0.54446340  0.19196015    -0.25500
N218        N  0.78137314  0.53231507  0.20699061    -0.33400
C219        C  0.76803171  0.54878097  0.22019199     0.02800
C220        C  0.77521909  0.57227681  0.21306060     0.08900
C221        C  0.79326122  0.56899566  0.19519886    -0.04200
H222        H  0.75416678  0.54396486  0.23391743     0.09500
H223        H  0.80326630  0.58330989  0.18527661     0.10700
Cu224      Cu  0.77939423  0.49400308  0.20895361     0.44200
Cu225      Cu  0.82106515  0.52737448  0.16766176     0.42000
Cu226      Cu  0.82115748  0.46062937  0.16776325     0.43900
N227        N  0.78137716  0.45569074  0.20700297    -0.32900
N228        N  0.79659111  0.44354080  0.19201591    -0.27100
C229        C  0.79329886  0.41900881  0.19525007    -0.03200
C230        C  0.77520807  0.41572949  0.21306324     0.09000
C231        C  0.76800021  0.43922637  0.22017068     0.02800
H232        H  0.80333142  0.40469342  0.18535740     0.10400
H233        H  0.75409953  0.44404416  0.23385925     0.09500
N234        N  0.84397576  0.48172731  0.14499588    -0.34300
N235        N  0.84393406  0.50627209  0.14495107    -0.26500
C236        C  0.86061848  0.51441925  0.12821907    -0.01800
C237        C  0.87159450  0.49399657  0.11730563     0.06900
C238        C  0.86068854  0.47357635  0.12829402     0.04900
H239        H  0.86441601  0.53374660  0.12430293     0.10100
H240        H  0.86455017  0.45424792  0.12444643     0.08900
N241        N  0.19126311  0.44345355  0.19128414    -0.25500
N242        N  0.20632651  0.45558442  0.20641630    -0.33400
C243        C  0.21950842  0.43909179  0.21972075     0.02800
C244        C  0.21232633  0.41560092  0.21254802     0.08900
C245        C  0.19445656  0.41891585  0.19455443    -0.04200
H246        H  0.23326560  0.44388437  0.23353990     0.09500
H247        H  0.18450723  0.40461951  0.18456151     0.10700
Cu248      Cu  0.20835449  0.49392258  0.20833996     0.44200
Cu249      Cu  0.16700028  0.46057519  0.16682066     0.42000
Cu250      Cu  0.16703283  0.52734493  0.16680665     0.43900
N251        N  0.20648383  0.53226311  0.20632120    -0.32900
N252        N  0.19143638  0.54441978  0.19120237    -0.27100
C253        C  0.19474371  0.56895259  0.19443142    -0.03200
C254        C  0.21267071  0.57223725  0.21237989     0.09000
C255        C  0.21976562  0.54873206  0.21957146     0.02800
H256        H  0.18482208  0.58326794  0.18445112     0.10400
H257        H  0.23351967  0.54391304  0.23338028     0.09500
N258        N  0.14429668  0.50622292  0.14400637    -0.34300
N259        N  0.14429886  0.48167774  0.14401191    -0.26500
C260        C  0.12763029  0.47351141  0.12730294    -0.01800
C261        C  0.11670632  0.49392006  0.11634832     0.06900
C262        C  0.12762217  0.51435485  0.12728982     0.04900
H263        H  0.12377860  0.45417942  0.12346115     0.10100
H264        H  0.12376281  0.53367851  0.12343144     0.08900
O265        O  0.02024961  0.47327354  0.02020113    -0.71200
O266        O  0.96727011  0.47347542  0.96756727    -0.72100
O267        O  0.02010946  0.47337511  0.96737136    -0.60800
O268        O  0.96741519  0.47337474  0.02040142    -0.69200
O269        O  0.96749908  0.51461337  0.02048496    -0.68700
O270        O  0.02019314  0.51461375  0.96745512    -0.60000
O271        O  0.96735079  0.51471478  0.96764772    -0.72500
O272        O  0.02033011  0.51451311  0.02028139    -0.71300
Cu273      Cu  0.99375640  0.47192551  0.99388052     1.04600
Cu274      Cu  0.99384515  0.51606289  0.99396905     1.04300
C275        C  0.02857025  0.49386502  0.02847113     0.95000
C276        C  0.95902925  0.49412351  0.95937798     0.94200
C277        C  0.02839564  0.49399456  0.95912915     0.86300
C278        C  0.95922868  0.49399398  0.02874311     0.92600
N279        N  0.54410408  0.79639501  0.79634118    -0.25500
N280        N  0.53193840  0.78142521  0.78113937    -0.33400
C281        C  0.54839772  0.76816555  0.76784027     0.02800
C282        C  0.57190762  0.77519122  0.77508647     0.08900
C283        C  0.56863883  0.79305471  0.79311734    -0.04200
H284        H  0.54356754  0.75446361  0.75397180     0.09500
H285        H  0.58296543  0.80290701  0.80315986     0.10700
Cu286      Cu  0.49360798  0.77958188  0.77908645     0.44200
Cu287      Cu  0.52704574  0.82076701  0.82081745     0.42000
Cu288      Cu  0.46028778  0.82111726  0.82048913     0.43900
N289        N  0.45528024  0.78160262  0.78104782    -0.32900
N290        N  0.44315373  0.79673654  0.79613015    -0.27100
C291        C  0.41861095  0.79351076  0.79290032    -0.03200
C292        C  0.41529508  0.77554732  0.77498602     0.09000
C293        C  0.43878466  0.76834193  0.76781751     0.02800
H294        H  0.40431319  0.80350436  0.80286293     0.10400
H295        H  0.44357522  0.75452176  0.75404676     0.09500
N296        N  0.48137714  0.84379718  0.84335394    -0.34300
N297        N  0.50592617  0.84365907  0.84350441    -0.26500
C298        C  0.51405114  0.86032444  0.86024995    -0.01800
C299        C  0.49360702  0.87138420  0.87105680     0.06900
C300        C  0.47320117  0.86055002  0.85999221     0.04900
H301        H  0.53337631  0.86407896  0.86422166     0.10100
H302        H  0.45386368  0.86450917  0.86372275     0.08900
N303        N  0.44330431  0.19172673  0.79657646    -0.25500
N304        N  0.45541548  0.20683240  0.78145518    -0.33400
C305        C  0.43890521  0.22004752  0.76821172     0.02800
C306        C  0.41542494  0.21284056  0.77541549     0.08900
C307        C  0.41875902  0.19492385  0.79336074    -0.04200
H308        H  0.44367928  0.23382912  0.75440070     0.09500
H309        H  0.40447270  0.18493500  0.80334670     0.10700
Cu310      Cu  0.49374146  0.20884243  0.77943173     0.44200
Cu311      Cu  0.46045202  0.16739640  0.82094317     0.42000
Cu312      Cu  0.52719410  0.16754677  0.82103515     0.43900
N313        N  0.53207338  0.20689426  0.78136082    -0.32900
N314        N  0.54424156  0.19187789  0.79650351    -0.27100
C315        C  0.56877622  0.19514194  0.79318843    -0.03200
C316        C  0.57204394  0.21300299  0.77516050     0.09000
C317        C  0.54853138  0.22010806  0.76801140     0.02800
H318        H  0.58310466  0.18524082  0.80316929     0.10400
H319        H  0.54369855  0.23383114  0.75417290     0.09500
N320        N  0.50607839  0.14474104  0.84382278    -0.34300
N321        N  0.48152900  0.14469107  0.84375942    -0.26500
C322        C  0.47333972  0.12797695  0.86042402    -0.01800
C323        C  0.49373599  0.11707185  0.87141812     0.06900
C324        C  0.51419138  0.12805096  0.86054065     0.04900
H325        H  0.45399852  0.12408049  0.86420855     0.10100
H326        H  0.53351414  0.12421614  0.86443674     0.08900
N327        N  0.54452316  0.79663476  0.19130321    -0.25500
N328        N  0.53241339  0.78149802  0.20639476    -0.33400
C329        C  0.54892918  0.76823287  0.21958473     0.02800
C330        C  0.57241175  0.77543856  0.21237785     0.08900
C331        C  0.56907061  0.79340880  0.19448547    -0.04200
H332        H  0.54415800  0.75441903  0.23336435     0.09500
H333        H  0.58335432  0.80341497  0.18451308     0.10700
Cu334      Cu  0.49407373  0.77952074  0.20844416     0.44200
Cu335      Cu  0.52735909  0.82103405  0.16701311     0.42000
Cu336      Cu  0.46057957  0.82093487  0.16701011     0.43900
N337        N  0.45572554  0.78146602  0.20656422    -0.32900
N338        N  0.44354016  0.79653256  0.19148500    -0.27100
C339        C  0.41900703  0.79323481  0.19479432    -0.03200
C340        C  0.41575405  0.77529711  0.21275228     0.09000
C341        C  0.43927884  0.76818556  0.21986509     0.02800
H342        H  0.40466842  0.80315564  0.18484752     0.10400
H343        H  0.44412705  0.75440378  0.23363955     0.09500
N344        N  0.48170393  0.84372024  0.14420258    -0.34300
N345        N  0.50625448  0.84375172  0.14423047    -0.26500
C346        C  0.51443205  0.86043215  0.12752511    -0.01800
C347        C  0.49402734  0.87133371  0.11654250     0.06900
C348        C  0.47358081  0.86038802  0.12746805     0.04900
H349        H  0.53377072  0.86429584  0.12369366     0.10100
H350        H  0.45425551  0.86421857  0.12358034     0.08900
N351        N  0.54426450  0.19148019  0.19155040    -0.25500
N352        N  0.53213093  0.20673253  0.20650805    -0.33400
C353        C  0.54862022  0.22005809  0.21968128     0.02800
C354        C  0.57211346  0.21277297  0.21260714     0.08900
C355        C  0.56880607  0.19469270  0.19480808    -0.04200
H356        H  0.54382269  0.23396377  0.23336317     0.09500
H357        H  0.58310901  0.18460444  0.18494899     0.10700
Cu358      Cu  0.49380119  0.20877874  0.20844019     0.44200
Cu359      Cu  0.52714351  0.16695845  0.16731629     0.42000
Cu360      Cu  0.46038705  0.16729255  0.16700188     0.43900
N361        N  0.45546867  0.20678500  0.20652692    -0.32900
N362        N  0.44331080  0.19169211  0.19144112    -0.27100
C363        C  0.41877344  0.19493186  0.19475187    -0.03200
C364        C  0.41549340  0.21285931  0.21271829     0.09000
C365        C  0.43900130  0.22002626  0.21983556     0.02800
H366        H  0.40445240  0.18497109  0.18480881     0.10400
H367        H  0.44382427  0.23381075  0.23362452     0.09500
N368        N  0.48150520  0.14437502  0.14433695    -0.34300
N369        N  0.50605435  0.14423427  0.14448726    -0.26500
C370        C  0.51422699  0.12747462  0.12785296    -0.01800
C371        C  0.49381891  0.11663851  0.11679200     0.06900
C372        C  0.47337729  0.12770574  0.12759626     0.04900
H373        H  0.53356382  0.12352115  0.12411293     0.10100
H374        H  0.45405146  0.12396073  0.12361887     0.08900
O375        O  0.51416363  0.02055713  0.96734901    -0.71200
O376        O  0.51456412  0.96765102  0.02008804    -0.72100
O377        O  0.51422452  0.96772660  0.96725419    -0.60800
O378        O  0.51448888  0.02048617  0.02018280    -0.69200
O379        O  0.47324260  0.02042003  0.02045824    -0.68700
O380        O  0.47297816  0.96766502  0.96753434    -0.64000
O381        O  0.47331757  0.96759245  0.02036893    -0.72500
O382        O  0.47291718  0.02050919  0.96761925    -0.71300
Cu383      Cu  0.51580888  0.99410756  0.99370635     1.04600
Cu384      Cu  0.47166424  0.99404433  0.99400498     1.04300
C385        C  0.49348704  0.02880876  0.95924152     0.95000
C386        C  0.49400014  0.95935252  0.02847691     0.94200
C387        C  0.49356273  0.95944422  0.95912373     0.86300
C388        C  0.49390171  0.02869827  0.02859793     0.92600
N389        N  0.31777065  0.26391027  0.24640983    -0.25500
N390        N  0.31780985  0.24662208  0.26383966    -0.33400
C391        C  0.33750677  0.23167242  0.26042138     0.02800
C392        C  0.35032563  0.24002421  0.23989880     0.08900
C393        C  0.33744344  0.26043631  0.23142219    -0.04200
H394        H  0.34227298  0.21612743  0.27220002     0.09500
H395        H  0.34214981  0.27210287  0.21576510     0.10700
Cu396      Cu  0.29157191  0.24451982  0.29187395     0.44200
Cu397      Cu  0.29145076  0.29182513  0.24417739     0.42000
Cu398      Cu  0.24398370  0.29189030  0.29180332     0.43900
N399        N  0.26357471  0.24665859  0.31814908    -0.32900
N400        N  0.24617964  0.26398330  0.31813150    -0.27100
C401        C  0.23119826  0.26053389  0.33781291    -0.03200
C402        C  0.23964317  0.24009804  0.35067925     0.09000
C403        C  0.26014050  0.23170781  0.33783996     0.02800
H404        H  0.21556341  0.27222809  0.34253168     0.10400
H405        H  0.27188866  0.21613239  0.34258592     0.09500
N406        N  0.24602174  0.31799959  0.26367518    -0.34300
N407        N  0.26335923  0.31797335  0.24627099    -0.26500
C408        C  0.25984601  0.33757980  0.23123751    -0.01800
C409        C  0.23935840  0.35040613  0.23965661     0.06900
C410        C  0.23100167  0.33762346  0.26019387     0.04900
H411        H  0.27156142  0.34230423  0.21561312     0.10100
H412        H  0.21542840  0.34238762  0.27196236     0.08900
N413        N  0.79602470  0.79653480  0.44350763    -0.25500
N414        N  0.78102557  0.78131817  0.45563522    -0.33400
C415        C  0.76778876  0.76805792  0.43914771     0.02800
C416        C  0.77486540  0.77535075  0.41566305     0.08900
C417        C  0.79273237  0.79336401  0.41897072    -0.04200
H418        H  0.75407730  0.75417799  0.44394103     0.09500
H419        H  0.80262505  0.80342390  0.40467204     0.10700
Cu420      Cu  0.77916033  0.77918692  0.49394817     0.44200
Cu421      Cu  0.82037590  0.82093573  0.46062149     0.42000
Cu422      Cu  0.82090219  0.82037280  0.52734898     0.43900
N423        N  0.78122801  0.78102856  0.53226438    -0.32900
N424        N  0.79643389  0.79600366  0.54441838    -0.27100
C425        C  0.79318865  0.79270052  0.56895070    -0.03200
C426        C  0.77513959  0.77485536  0.57222820     0.09000
C427        C  0.76790418  0.76780150  0.54872777     0.02800
H428        H  0.80321736  0.80257702  0.58326911     0.10400
H429        H  0.75401456  0.75411571  0.54390681     0.09500
N430        N  0.84351895  0.84334555  0.50624709    -0.34300
N431        N  0.84328918  0.84356952  0.48170373    -0.26500
C432        C  0.85988595  0.86036794  0.47353432    -0.01800
C433        C  0.87100578  0.87114185  0.49393942     0.06900
C434        C  0.86027521  0.85999963  0.51437621     0.04900
H435        H  0.86354954  0.86440033  0.45420214     0.10100
H436        H  0.86430158  0.86369408  0.53369871     0.08900
N437        N  0.19114360  0.79643488  0.54442776    -0.25500
N438        N  0.20614885  0.78121660  0.53231194    -0.33400
C439        C  0.21934867  0.76795014  0.54881568     0.02800
C440        C  0.21223911  0.77524096  0.57229604     0.08900
C441        C  0.19439364  0.79326166  0.56896859    -0.04200
H442        H  0.23306704  0.75407616  0.54403722     0.09500
H443        H  0.18449366  0.80333211  0.58325628     0.10700
Cu444      Cu  0.20809057  0.77913211  0.49398510     0.44200
Cu445      Cu  0.16685617  0.82085139  0.52728854     0.42000
Cu446      Cu  0.16663127  0.82052998  0.46053133     0.43900
N447        N  0.20619087  0.78107184  0.45565023    -0.32900
N448        N  0.19110139  0.79613790  0.44347727    -0.27100
C449        C  0.19443062  0.79287737  0.41894648    -0.03200
C450        C  0.21241256  0.77496392  0.41568378     0.09000
C451        C  0.21951926  0.76782772  0.43919876     0.02800
H452        H  0.18449315  0.80281873  0.40461679     0.10400
H453        H  0.23332028  0.75406717  0.44403708     0.09500
N454        N  0.14389957  0.84339245  0.48164676    -0.34300
N455        N  0.14401585  0.84351387  0.50619249    -0.26500
C456        C  0.12735449  0.86024037  0.51436740    -0.01800
C457        C  0.11630924  0.87107731  0.49396513     0.06900
C458        C  0.12715088  0.86004668  0.47352293     0.04900
H459        H  0.12359793  0.86418160  0.53370217     0.10100
H460        H  0.12320232  0.86381513  0.45420067     0.08900
N461        N  0.79627344  0.19135314  0.44325433    -0.25500
N462        N  0.78114107  0.20645123  0.45536163    -0.33400
C463        C  0.76788452  0.21965138  0.43885072     0.02800
C464        C  0.77509115  0.21244135  0.41537502     0.08900
C465        C  0.79305300  0.19453966  0.41871213    -0.04200
H466        H  0.75407507  0.23343760  0.44362103     0.09500
H467        H  0.80305769  0.18456466  0.40443036     0.10700
Cu468      Cu  0.77916275  0.20851053  0.49368481     0.44200
Cu469      Cu  0.82068521  0.16707624  0.46040574     0.42000
Cu470      Cu  0.82091952  0.16740948  0.52715679     0.43900
N471        N  0.78120192  0.20671445  0.53201589    -0.32900
N472        N  0.79640901  0.19177140  0.54419446    -0.27100
C473        C  0.79316622  0.19512935  0.56872305    -0.03200
C474        C  0.77511798  0.21297654  0.57197669     0.09000
C475        C  0.76788168  0.21997357  0.54846082     0.02800
H476        H  0.80320450  0.18529631  0.58305713     0.10400
H477        H  0.75400040  0.23365130  0.54361707     0.09500
N478        N  0.84367384  0.14456786  0.50604348    -0.34300
N479        N  0.84355874  0.14445050  0.48149799    -0.26500
C480        C  0.86022289  0.12772931  0.47331957    -0.01800
C481        C  0.87127008  0.11689145  0.49371952     0.06900
C482        C  0.86042542  0.12791509  0.51416428     0.04900
H483        H  0.86397130  0.12378409  0.45398403     0.10100
H484        H  0.86436757  0.12413648  0.53348584     0.08900
N485        N  0.19158220  0.19110616  0.54457483    -0.25500
N486        N  0.20655054  0.20635315  0.53244706    -0.33400
C487        C  0.21973805  0.21966050  0.54893881     0.02800
C488        C  0.21266216  0.21236767  0.57242647     0.08900
C489        C  0.19484597  0.19430327  0.56911365    -0.04200
H490        H  0.23341867  0.23357117  0.54414699     0.09500
H491        H  0.18496907  0.18422558  0.58341074     0.10700
Cu492      Cu  0.20843661  0.20845409  0.49412024     0.44200
Cu493      Cu  0.16730383  0.16663909  0.52744761     0.42000
Cu494      Cu  0.16684692  0.16716706  0.46068126     0.43900
N495        N  0.20641452  0.20661793  0.45578786    -0.32900
N496        N  0.19126432  0.19159964  0.44361736    -0.27100
C497        C  0.19450379  0.19493517  0.41908642    -0.03200
C498        C  0.21249110  0.21284886  0.41582294     0.09000
C499        C  0.21969501  0.21990574  0.43933534     0.02800
H500        H  0.18450401  0.18504330  0.40475830     0.10400
H501        H  0.23352738  0.23364391  0.44417121     0.09500
N502        N  0.14422249  0.14420443  0.48179406    -0.34300
N503        N  0.14442472  0.14399217  0.50633884    -0.26500
C504        C  0.12779780  0.12721729  0.51449787    -0.01800
C505        C  0.11668832  0.11644731  0.49408480     0.06900
C506        C  0.12745490  0.12756697  0.47365592     0.04900
H507        H  0.12409596  0.12320989  0.53382809     0.10100
H508        H  0.12343331  0.12387931  0.45433117     0.08900
O509        O  0.02007615  0.02032226  0.51458575    -0.71200
O510        O  0.96714546  0.96758043  0.51439142    -0.72100
O511        O  0.01998288  0.96749268  0.51465176    -0.60800
O512        O  0.96724179  0.02041007  0.51431127    -0.69200
O513        O  0.96747249  0.02034959  0.47307033    -0.68700
O514        O  0.02020904  0.96743670  0.47341075    -0.60000
O515        O  0.96737056  0.96750859  0.47315077    -0.72500
O516        O  0.02031233  0.02026136  0.47334491    -0.71300
Cu517      Cu  0.99360115  0.99395395  0.51593365     1.04600
Cu518      Cu  0.99384884  0.99388672  0.47179446     1.04300
C519        C  0.02847184  0.02853583  0.49399577     0.95000
C520        C  0.95898789  0.95929226  0.49374679     0.94200
C521        C  0.02834247  0.95919399  0.49407794     0.86300
C522        C  0.95911756  0.02865752  0.49364152     0.92600
C523        C  0.04739630  0.04737981  0.49406458    -0.16700
C524        C  0.06328287  0.06319736  0.49410269     0.07300
C525        C  0.08189495  0.08173675  0.49411505     0.09200
C526        C  0.09776865  0.09756278  0.49410318    -0.17600
C527        C  0.89014781  0.09797538  0.49366425    -0.16700
C528        C  0.90596334  0.08209944  0.49358796     0.07300
C529        C  0.92448547  0.06348003  0.49352734     0.09200
C530        C  0.94028756  0.04758597  0.49353845    -0.17600
C531        C  0.04719602  0.94028896  0.49417217    -0.16700
C532        C  0.06302625  0.92442278  0.49416789     0.07300
C533        C  0.08158012  0.90583463  0.49409427     0.09200
C534        C  0.09741615  0.88997880  0.49401600    -0.17600
C535        C  0.88987431  0.89007816  0.49389805    -0.16700
C536        C  0.90569811  0.90595452  0.49382362     0.07300
C537        C  0.92425019  0.92455491  0.49373654     0.09200
C538        C  0.94009314  0.94041697  0.49370305    -0.17600
C539        C  0.22982230  0.23027709  0.37341867    -0.11500
C540        C  0.22182267  0.22224184  0.39269798    -0.13000
C541        C  0.39235762  0.22219503  0.22208086    -0.11500
C542        C  0.37307041  0.23020491  0.23008873    -0.13000
C543        C  0.49397389  0.04754455  0.04752197    -0.16700
C544        C  0.49396996  0.06336437  0.06340675     0.07300
C545        C  0.49391524  0.08190967  0.08201469     0.09200
C546        C  0.49385853  0.09774271  0.09788175    -0.17600
C547        C  0.49407711  0.89020799  0.09762172    -0.16700
C548        C  0.49413526  0.90604011  0.08176229     0.07300
C549        C  0.49416553  0.92460412  0.06318367     0.09200
C550        C  0.49412778  0.94045531  0.04733882    -0.17600
C551        C  0.49366204  0.09813727  0.89027880    -0.16700
C552        C  0.49354237  0.08225072  0.90608376     0.07300
C553        C  0.49341539  0.06362538  0.92460130     0.09200
C554        C  0.49338365  0.04773257  0.94040504    -0.17600
C555        C  0.49356333  0.89029497  0.88994979    -0.16700
C556        C  0.49350939  0.90614958  0.90579406     0.07300
C557        C  0.49346904  0.92472746  0.92436774     0.09200
C558        C  0.49348148  0.94057547  0.94022344    -0.17600
C559        C  0.22159742  0.39244656  0.22187988    -0.11500
C560        C  0.22955797  0.37314460  0.22986126    -0.13000
C561        C  0.09781621  0.49388896  0.09745930    -0.16700
C562        C  0.08196353  0.49384521  0.08163203     0.07300
C563        C  0.06337171  0.49380597  0.06309704     0.09200
C564        C  0.04749495  0.49380710  0.04728947    -0.17600
C565        C  0.89042957  0.49399444  0.09832145    -0.16700
C566        C  0.90620140  0.49399379  0.08238154     0.07300
C567        C  0.92467043  0.49399372  0.06368462     0.09200
C568        C  0.94043196  0.49399379  0.04773004    -0.17600
C569        C  0.09758474  0.49399969  0.88993929    -0.16700
C570        C  0.08170277  0.49399850  0.90576932     0.07300
C571        C  0.06310624  0.49399642  0.92433922     0.09200
C572        C  0.04725407  0.49399502  0.94020365    -0.17600
C573        C  0.94010204  0.49418192  0.94056151    -0.16700
C574        C  0.92422234  0.49418483  0.92475673     0.07300
C575        C  0.90562734  0.49414824  0.90622502     0.09200
C576        C  0.88977314  0.49410634  0.89039955    -0.17600
C577        C  0.59525986  0.22208388  0.22191897    -0.11500
C578        C  0.61454765  0.23006229  0.22992003    -0.13000
C579        C  0.75772039  0.37334067  0.23030485    -0.11500
C580        C  0.76579100  0.39260638  0.22233454    -0.13000
C581        C  0.76580084  0.22170664  0.39221583    -0.11500
C582        C  0.75783182  0.22967285  0.37292033    -0.13000
C583        C  0.75775041  0.61466701  0.23031565    -0.11500
C584        C  0.76581550  0.59540070  0.22234211    -0.13000
C585        C  0.59557983  0.76615423  0.22165093    -0.11500
C586        C  0.61488141  0.75819567  0.22962815    -0.13000
C587        C  0.75755387  0.75807900  0.37323676    -0.11500
C588        C  0.76554081  0.76606117  0.39252265    -0.13000
C589        C  0.22201432  0.59537761  0.22170829    -0.11500
C590        C  0.22999249  0.61467519  0.22970802    -0.13000
C591        C  0.39262581  0.76590248  0.22210339    -0.11500
C592        C  0.37333451  0.75786706  0.23009419    -0.13000
C593        C  0.22985220  0.75764572  0.37326904    -0.11500
C594        C  0.22181401  0.76563416  0.39255585    -0.13000
C595        C  0.23001787  0.61465850  0.75769152    -0.11500
C596        C  0.22202721  0.59539083  0.76573638    -0.13000
C597        C  0.22953909  0.75802048  0.61474164    -0.11500
C598        C  0.22154386  0.76597219  0.59544993    -0.13000
C599        C  0.37285004  0.75824573  0.75771695    -0.11500
C600        C  0.39214325  0.76623808  0.76568930    -0.13000
C601        C  0.22993340  0.22969736  0.61485580    -0.11500
C602        C  0.22195517  0.22169042  0.59557274    -0.13000
C603        C  0.39226392  0.22208804  0.76610506    -0.11500
C604        C  0.37296075  0.23001959  0.75811448    -0.13000
C605        C  0.22993901  0.37332492  0.75762910    -0.11500
C606        C  0.22191578  0.39259296  0.76564088    -0.13000
C607        C  0.59517548  0.22232269  0.76576585    -0.11500
C608        C  0.61447129  0.23030277  0.75774422    -0.13000
C609        C  0.76575602  0.22235291  0.59509837    -0.11500
C610        C  0.75774276  0.23036077  0.61438534    -0.13000
C611        C  0.76589411  0.39262743  0.76586287    -0.11500
C612        C  0.75792528  0.37332398  0.75787514    -0.13000
C613        C  0.61432403  0.75778010  0.75777854    -0.11500
C614        C  0.59503626  0.76580760  0.76576234    -0.13000
C615        C  0.75777240  0.61485377  0.75830650    -0.11500
C616        C  0.76572397  0.59554536  0.76627496    -0.13000
C617        C  0.75773822  0.75755352  0.61464034    -0.11500
C618        C  0.76576689  0.76553448  0.59535626    -0.13000
loop_ 
_geom_bond_atom_site_label_1 
_geom_bond_atom_site_label_2 
_geom_bond_distance 
_geom_bond_site_symmetry_2 
_ccdc_geom_bond_type 
N1            N2   1.323       .  A
N1            C5   1.345       .  A
N1           Cu9   2.071       .  S
N2            C3   1.345       .  A
N2           Cu8   2.071       .  S
C3            C4   1.379       .  A
C3            H6   1.082       .  S
C4            C5   1.379       .  A
C4          C613   1.435       .  S
C5            H7   1.082       .  S
Cu8          N11   2.071       .  S
Cu9          N19   2.071       .  S
Cu10         N12   2.071       .  S
Cu10         N18   2.071       .  S
N11          N12   1.323       .  A
N11          C15   1.345       .  A
N12          C13   1.345       .  A
C13          C14   1.379       .  A
C13          H16   1.082       .  S
C14          C15   1.379       .  A
C14         C617   1.435       .  S
C15          H17   1.082       .  S
N18          N19   1.323       .  A
N18          C22   1.345       .  A
N19          C20   1.345       .  A
C20          C21   1.379       .  A
C20          H23   1.082       .  S
C21          C22   1.379       .  A
C21         C615   1.435       .  S
C22          H24   1.082       .  S
N25          N26   1.323       .  A
N25          C29   1.345       .  A
N25         Cu33   2.071       .  S
N26          C27   1.345       .  A
N26         Cu32   2.071       .  S
C27          C28   1.379       .  A
C27          H30   1.082       .  S
C28          C29   1.379       .  A
C28         C608   1.435       .  S
C29          H31   1.082       .  S
Cu32         N35   2.071       .  S
Cu33         N43   2.071       .  S
Cu34         N36   2.071       .  S
Cu34         N42   2.071       .  S
N35          N36   1.323       .  A
N35          C39   1.345       .  A
N36          C37   1.345       .  A
C37          C38   1.379       .  A
C37          H40   1.082       .  S
C38          C39   1.379       .  A
C38         C610   1.435       .  S
C39          H41   1.082       .  S
N42          N43   1.323       .  A
N42          C46   1.345       .  A
N43          C44   1.345       .  A
C44          C45   1.379       .  A
C44          H47   1.082       .  S
C45          C46   1.379       .  A
C45         C612   1.435       .  S
C46          H48   1.082       .  S
N49          N50   1.323       .  A
N49          C53   1.345       .  A
N49         Cu57   2.070       .  S
N50          C51   1.345       .  A
N50         Cu56   2.070       .  S
C51          C52   1.379       .  A
C51          H54   1.082       .  S
C52          C53   1.379       .  A
C52         C605   1.435       .  S
C53          H55   1.082       .  S
Cu56         N59   2.070       .  S
Cu57         N67   2.070       .  S
Cu58         N60   2.070       .  S
Cu58         N66   2.070       .  S
N59          N60   1.323       .  A
N59          C63   1.345       .  A
N60          C61   1.345       .  A
C61          C62   1.379       .  A
C61          H64   1.082       .  S
C62          C63   1.379       .  A
C62         C604   1.435       .  S
C63          H65   1.082       .  S
N66          N67   1.323       .  A
N66          C70   1.345       .  A
N67          C68   1.345       .  A
C68          C69   1.379       .  A
C68          H71   1.082       .  S
C69          C70   1.379       .  A
C69         C601   1.435       .  S
C70          H72   1.082       .  S
N73          N74   1.323       .  A
N73          C77   1.345       .  A
N73         Cu81   2.070       .  S
N74          C75   1.345       .  A
N74         Cu80   2.070       .  S
C75          C76   1.379       .  A
C75          H78   1.082       .  S
C76          C77   1.379       .  A
C76         C595   1.435       .  S
C77          H79   1.082       .  S
Cu80         N83   2.070       .  S
Cu81         N91   2.070       .  S
Cu82         N84   2.070       .  S
Cu82         N90   2.070       .  S
N83          N84   1.323       .  A
N83          C87   1.345       .  A
N84          C85   1.345       .  A
C85          C86   1.379       .  A
C85          H88   1.082       .  S
C86          C87   1.379       .  A
C86         C599   1.435       .  S
C87          H89   1.082       .  S
N90          N91   1.323       .  A
N90          C94   1.345       .  A
N91          C92   1.345       .  A
C92          C93   1.379       .  A
C92          H95   1.082       .  S
C93          C94   1.379       .  A
C93         C597   1.435       .  S
C94          H96   1.082       .  S
N97          N98   1.323       .  A
N97         C101   1.345       .  A
N97        Cu105   2.071       .  S
N98          C99   1.345       .  A
N98        Cu104   2.072       .  S
C99         C100   1.379       .  A
C99         H102   1.082       .  S
C100        C101   1.379       .  A
C100        C592   1.436       .  S
C101        H103   1.082       .  S
Cu104       N107   2.072       .  S
Cu105       N115   2.071       .  S
Cu106       N108   2.071       .  S
Cu106       N114   2.071       .  S
N107        N108   1.323       .  A
N107        C111   1.345       .  A
N108        C109   1.345       .  A
C109        C110   1.379       .  A
C109        H112   1.082       .  S
C110        C111   1.379       .  A
C110        C593   1.436       .  S
C111        H113   1.082       .  S
N114        N115   1.323       .  A
N114        C118   1.345       .  A
N115        C116   1.345       .  A
C116        C117   1.379       .  A
C116        H119   1.082       .  S
C117        C118   1.379       .  A
C117        C590   1.435       .  S
C118        H120   1.082       .  S
N121        N122   1.323       .  A
N121        C125   1.345       .  A
N121       Cu129   2.071       .  S
N122        C123   1.345       .  A
N122       Cu128   2.070       .  S
C123        C124   1.379       .  A
C123        H126   1.082       .  S
C124        C125   1.379       .  A
C124        C583   1.435       .  S
C125        H127   1.082       .  S
Cu128       N131   2.070       .  S
Cu129       N139   2.071       .  S
Cu130       N132   2.070       .  S
Cu130       N138   2.070       .  S
N131        N132   1.323       .  A
N131        C135   1.345       .  A
N132        C133   1.345       .  A
C133        C134   1.379       .  A
C133        H136   1.082       .  S
C134        C135   1.379       .  A
C134        C587   1.435       .  S
C135        H137   1.082       .  S
N138        N139   1.323       .  A
N138        C142   1.345       .  A
N139        C140   1.345       .  A
C140        C141   1.379       .  A
C140        H143   1.082       .  S
C141        C142   1.379       .  A
C141        C586   1.435       .  S
C142        H144   1.082       .  S
N145        N146   1.323       .  A
N145        C149   1.345       .  A
N145       Cu153   2.070       .  S
N146        C147   1.345       .  A
N146       Cu152   2.070       .  S
C147        C148   1.379       .  A
C147        H150   1.082       .  S
C148        C149   1.379       .  A
C148        C579   1.435       .  S
C149        H151   1.082       .  S
Cu152       N155   2.070       .  S
Cu153       N163   2.070       .  S
Cu154       N156   2.070       .  S
Cu154       N162   2.070       .  S
N155        N156   1.323       .  A
N155        C159   1.345       .  A
N156        C157   1.345       .  A
C157        C158   1.379       .  A
C157        H160   1.082       .  S
C158        C159   1.379       .  A
C158        C578   1.435       .  S
C159        H161   1.082       .  S
N162        N163   1.323       .  A
N162        C166   1.345       .  A
N163        C164   1.345       .  A
C164        C165   1.379       .  A
C164        H167   1.082       .  S
C165        C166   1.379       .  A
C165        C582   1.435       .  S
C166        H168   1.082       .  S
N169        N170   1.323       .  A
N169        C173   1.345       .  A
N169       Cu177   2.074       .  S
N170        C171   1.345       .  A
N170       Cu176   2.071       .  S
C171        C172   1.379       .  A
C171        H174   1.082       .  S
C172        C173   1.379       .  A
C172        C616   1.435       .  S
C173        H175   1.082       .  S
Cu176       N179   2.071       .  S
Cu177       N187   2.074       .  S
Cu178       N180   2.075       .  S
Cu178       N186   2.075       .  S
N179        N180   1.323       .  A
N179        C183   1.345       .  A
N180        C181   1.345       .  A
C181        C182   1.379       .  A
C181        H184   1.082       .  S
C182        C183   1.379       .  A
C182        C611   1.435       .  S
C183        H185   1.082       .  S
N186        N187   1.323       .  A
N186        C190   1.346       .  A
N187        C188   1.346       .  A
C188        C189   1.380       .  A
C188        H191   1.082       .  S
C189        C190   1.381       .  A
C189        C576   1.440       .  S
C190        H192   1.082       .  S
N193        N194   1.323       .  A
N193        C197   1.345       .  A
N193       Cu201   2.075       .  S
N194        C195   1.345       .  A
N194       Cu200   2.070       .  S
C195        C196   1.379       .  A
C195        H198   1.082       .  S
C196        C197   1.379       .  A
C196        C596   1.435       .  S
C197        H199   1.082       .  S
Cu200       N203   2.070       .  S
Cu201       N211   2.075       .  S
Cu202       N204   2.075       .  S
Cu202       N210   2.075       .  S
N203        N204   1.323       .  A
N203        C207   1.345       .  A
N204        C205   1.345       .  A
C205        C206   1.379       .  A
C205        H208   1.082       .  S
C206        C207   1.379       .  A
C206        C606   1.435       .  S
C207        H209   1.082       .  S
N210        N211   1.323       .  A
N210        C214   1.346       .  A
N211        C212   1.346       .  A
C212        C213   1.381       .  A
C212        H215   1.082       .  S
C213        C214   1.381       .  A
C213        C569   1.440       .  S
C214        H216   1.082       .  S
N217        N218   1.323       .  A
N217        C221   1.345       .  A
N217       Cu225   2.075       .  S
N218        C219   1.345       .  A
N218       Cu224   2.070       .  S
C219        C220   1.378       .  A
C219        H222   1.082       .  S
C220        C221   1.379       .  A
C220        C584   1.435       .  S
C221        H223   1.082       .  S
Cu224       N227   2.070       .  S
Cu225       N235   2.075       .  S
Cu226       N228   2.075       .  S
Cu226       N234   2.075       .  S
N227        N228   1.323       .  A
N227        C231   1.345       .  A
N228        C229   1.345       .  A
C229        C230   1.379       .  A
C229        H232   1.082       .  S
C230        C231   1.379       .  A
C230        C580   1.435       .  S
C231        H233   1.082       .  S
N234        N235   1.323       .  A
N234        C238   1.346       .  A
N235        C236   1.346       .  A
C236        C237   1.381       .  A
C236        H239   1.082       .  S
C237        C238   1.381       .  A
C237        C565   1.440       .  S
C238        H240   1.082       .  S
N241        N242   1.323       .  A
N241        C245   1.345       .  A
N241       Cu249   2.074       .  S
N242        C243   1.345       .  A
N242       Cu248   2.071       .  S
C243        C244   1.379       .  A
C243        H246   1.082       .  S
C244        C245   1.379       .  A
C244        C559   1.435       .  S
C245        H247   1.082       .  S
Cu248       N251   2.071       .  S
Cu249       N259   2.074       .  S
Cu250       N252   2.075       .  S
Cu250       N258   2.075       .  S
N251        N252   1.323       .  A
N251        C255   1.345       .  A
N252        C253   1.345       .  A
C253        C254   1.379       .  A
C253        H256   1.082       .  S
C254        C255   1.379       .  A
C254        C589   1.436       .  S
C255        H257   1.082       .  S
N258        N259   1.323       .  A
N258        C262   1.346       .  A
N259        C260   1.346       .  A
C260        C261   1.380       .  A
C260        H263   1.082       .  S
C261        C262   1.381       .  A
C261        C561   1.440       .  S
C262        H264   1.082       .  S
O265       Cu273   2.014   1_454  S
O265        C275   1.277       .  A
O266       Cu273   2.014       .  S
O266        C276   1.277       .  A
O267       Cu273   2.015   1_455  S
O267        C277   1.277       .  A
O268       Cu273   2.015   1_554  S
O268        C278   1.277       .  A
O269       Cu274   2.015   1_554  S
O269        C278   1.277       .  A
O270       Cu274   2.015   1_455  S
O270        C277   1.277       .  A
O271       Cu274   2.014       .  S
O271        C276   1.277       .  A
O272       Cu274   2.014   1_454  S
O272        C275   1.277       .  A
Cu273      Cu274   2.378       .  S
C275        C564   1.439       .  S
C276        C573   1.439       .  S
C277        C572   1.439       .  S
C278        C568   1.439       .  S
N279        N280   1.323       .  A
N279        C283   1.345       .  A
N279       Cu287   2.075       .  S
N280        C281   1.345       .  A
N280       Cu286   2.070       .  S
C281        C282   1.379       .  A
C281        H284   1.082       .  S
C282        C283   1.379       .  A
C282        C614   1.435       .  S
C283        H285   1.082       .  S
Cu286       N289   2.070       .  S
Cu287       N297   2.076       .  S
Cu288       N290   2.074       .  S
Cu288       N296   2.074       .  S
N289        N290   1.323       .  A
N289        C293   1.345       .  A
N290        C291   1.345       .  A
C291        C292   1.379       .  A
C291        H294   1.082       .  S
C292        C293   1.379       .  A
C292        C600   1.435       .  S
C293        H295   1.082       .  S
N296        N297   1.323       .  A
N296        C300   1.346       .  A
N297        C298   1.346       .  A
C298        C299   1.381       .  A
C298        H301   1.082       .  S
C299        C300   1.380       .  A
C299        C555   1.440       .  S
C300        H302   1.082       .  S
N303        N304   1.323       .  A
N303        C307   1.345       .  A
N303       Cu311   2.074       .  S
N304        C305   1.345       .  A
N304       Cu310   2.070       .  S
C305        C306   1.379       .  A
C305        H308   1.082       .  S
C306        C307   1.378       .  A
C306        C603   1.435       .  S
C307        H309   1.082       .  S
Cu310       N313   2.070       .  S
Cu311       N321   2.074       .  S
Cu312       N314   2.075       .  S
Cu312       N320   2.076       .  S
N313        N314   1.324       .  A
N313        C317   1.345       .  A
N314        C315   1.345       .  A
C315        C316   1.379       .  A
C315        H318   1.082       .  S
C316        C317   1.379       .  A
C316        C607   1.435       .  S
C317        H319   1.082       .  S
N320        N321   1.323       .  A
N320        C324   1.346       .  A
N321        C322   1.346       .  A
C322        C323   1.380       .  A
C322        H325   1.082       .  S
C323        C324   1.381       .  A
C323        C551   1.440       .  S
C324        H326   1.082       .  S
N327        N328   1.323       .  A
N327        C331   1.345       .  A
N327       Cu335   2.074       .  S
N328        C329   1.345       .  A
N328       Cu334   2.071       .  S
C329        C330   1.379       .  A
C329        H332   1.082       .  S
C330        C331   1.379       .  A
C330        C585   1.435       .  S
C331        H333   1.082       .  S
Cu334       N337   2.071       .  S
Cu335       N345   2.074       .  S
Cu336       N338   2.076       .  S
Cu336       N344   2.076       .  S
N337        N338   1.324       .  A
N337        C341   1.345       .  A
N338        C339   1.345       .  A
C339        C340   1.379       .  A
C339        H342   1.082       .  S
C340        C341   1.379       .  A
C340        C591   1.436       .  S
C341        H343   1.082       .  S
N344        N345   1.323       .  A
N344        C348   1.346       .  A
N345        C346   1.346       .  A
C346        C347   1.380       .  A
C346        H349   1.082       .  S
C347        C348   1.381       .  A
C347        C547   1.440       .  S
C348        H350   1.082       .  S
N351        N352   1.323       .  A
N351        C355   1.345       .  A
N351       Cu359   2.074       .  S
N352        C353   1.345       .  A
N352       Cu358   2.070       .  S
C353        C354   1.379       .  A
C353        H356   1.082       .  S
C354        C355   1.379       .  A
C354        C577   1.435       .  S
C355        H357   1.082       .  S
Cu358       N361   2.071       .  S
Cu359       N369   2.075       .  S
Cu360       N362   2.075       .  S
Cu360       N368   2.076       .  S
N361        N362   1.323       .  A
N361        C365   1.345       .  A
N362        C363   1.345       .  A
C363        C364   1.379       .  A
C363        H366   1.082       .  S
C364        C365   1.379       .  A
C364        C541   1.435       .  S
C365        H367   1.082       .  S
N368        N369   1.323       .  A
N368        C372   1.346       .  A
N369        C370   1.346       .  A
C370        C371   1.380       .  A
C370        H373   1.082       .  S
C371        C372   1.381       .  A
C371        C546   1.440       .  S
C372        H374   1.082       .  S
O375       Cu383   2.014   1_545  S
O375        C385   1.277       .  A
O376       Cu383   2.014   1_554  S
O376        C386   1.277       .  A
O377       Cu383   2.015       .  S
O377        C387   1.277       .  A
O378       Cu383   2.015   1_544  S
O378        C388   1.277       .  A
O379       Cu384   2.014   1_544  S
O379        C388   1.277       .  A
O380       Cu384   2.015       .  S
O380        C387   1.277       .  A
O381       Cu384   2.015   1_554  S
O381        C386   1.277       .  A
O382       Cu384   2.015   1_545  S
O382        C385   1.277       .  A
Cu383      Cu384   2.378       .  S
C385        C554   1.439       .  S
C386        C550   1.439       .  S
C387        C558   1.439       .  S
C388        C543   1.439       .  S
N389        N390   1.323       .  A
N389        C393   1.345       .  A
N389       Cu397   2.071       .  S
N390        C391   1.345       .  A
N390       Cu396   2.071       .  S
C391        C392   1.379       .  A
C391        H394   1.082       .  S
C392        C393   1.379       .  A
C392        C542   1.435       .  S
C393        H395   1.082       .  S
Cu396       N399   2.071       .  S
Cu397       N407   2.071       .  S
Cu398       N400   2.071       .  S
Cu398       N406   2.071       .  S
N399        N400   1.323       .  A
N399        C403   1.345       .  A
N400        C401   1.345       .  A
C401        C402   1.379       .  A
C401        H404   1.082       .  S
C402        C403   1.379       .  A
C402        C539   1.435       .  S
C403        H405   1.082       .  S
N406        N407   1.323       .  A
N406        C410   1.345       .  A
N407        C408   1.345       .  A
C408        C409   1.379       .  A
C408        H411   1.082       .  S
C409        C410   1.379       .  A
C409        C560   1.435       .  S
C410        H412   1.082       .  S
N413        N414   1.323       .  A
N413        C417   1.345       .  A
N413       Cu421   2.074       .  S
N414        C415   1.345       .  A
N414       Cu420   2.070       .  S
C415        C416   1.379       .  A
C415        H418   1.082       .  S
C416        C417   1.378       .  A
C416        C588   1.435       .  S
C417        H419   1.082       .  S
Cu420       N423   2.070       .  S
Cu421       N431   2.074       .  S
Cu422       N424   2.075       .  S
Cu422       N430   2.075       .  S
N423        N424   1.323       .  A
N423        C427   1.345       .  A
N424        C425   1.345       .  A
C425        C426   1.379       .  A
C425        H428   1.082       .  S
C426        C427   1.379       .  A
C426        C618   1.435       .  S
C427        H429   1.082       .  S
N430        N431   1.323       .  A
N430        C434   1.346       .  A
N431        C432   1.346       .  A
C432        C433   1.380       .  A
C432        H435   1.082       .  S
C433        C434   1.381       .  A
C433        C535   1.440       .  S
C434        H436   1.082       .  S
N437        N438   1.323       .  A
N437        C441   1.345       .  A
N437       Cu445   2.073       .  S
N438        C439   1.345       .  A
N438       Cu444   2.071       .  S
C439        C440   1.379       .  A
C439        H442   1.082       .  S
C440        C441   1.378       .  A
C440        C598   1.435       .  S
C441        H443   1.082       .  S
Cu444       N447   2.071       .  S
Cu445       N455   2.074       .  S
Cu446       N448   2.076       .  S
Cu446       N454   2.076       .  S
N447        N448   1.323       .  A
N447        C451   1.345       .  A
N448        C449   1.345       .  A
C449        C450   1.379       .  A
C449        H452   1.082       .  S
C450        C451   1.379       .  A
C450        C594   1.436       .  S
C451        H453   1.082       .  S
N454        N455   1.323       .  A
N454        C458   1.346       .  A
N455        C456   1.346       .  A
C456        C457   1.380       .  A
C456        H459   1.082       .  S
C457        C458   1.381       .  A
C457        C534   1.440       .  S
C458        H460   1.082       .  S
N461        N462   1.323       .  A
N461        C465   1.345       .  A
N461       Cu469   2.073       .  S
N462        C463   1.345       .  A
N462       Cu468   2.071       .  S
C463        C464   1.379       .  A
C463        H466   1.082       .  S
C464        C465   1.378       .  A
C464        C581   1.435       .  S
C465        H467   1.082       .  S
Cu468       N471   2.071       .  S
Cu469       N479   2.074       .  S
Cu470       N472   2.076       .  S
Cu470       N478   2.076       .  S
N471        N472   1.323       .  A
N471        C475   1.345       .  A
N472        C473   1.345       .  A
C473        C474   1.379       .  A
C473        H476   1.082       .  S
C474        C475   1.379       .  A
C474        C609   1.435       .  S
C475        H477   1.082       .  S
N478        N479   1.323       .  A
N478        C482   1.346       .  A
N479        C480   1.346       .  A
C480        C481   1.380       .  A
C480        H483   1.082       .  S
C481        C482   1.381       .  A
C481        C527   1.440       .  S
C482        H484   1.082       .  S
N485        N486   1.323       .  A
N485        C489   1.345       .  A
N485       Cu493   2.074       .  S
N486        C487   1.345       .  A
N486       Cu492   2.071       .  S
C487        C488   1.379       .  A
C487        H490   1.082       .  S
C488        C489   1.379       .  A
C488        C602   1.435       .  S
C489        H491   1.082       .  S
Cu492       N495   2.071       .  S
Cu493       N503   2.074       .  S
Cu494       N496   2.075       .  S
Cu494       N502   2.076       .  S
N495        N496   1.323       .  A
N495        C499   1.345       .  A
N496        C497   1.345       .  A
C497        C498   1.379       .  A
C497        H500   1.082       .  S
C498        C499   1.379       .  A
C498        C540   1.435       .  S
C499        H501   1.082       .  S
N502        N503   1.323       .  A
N502        C506   1.346       .  A
N503        C504   1.346       .  A
C504        C505   1.380       .  A
C504        H507   1.082       .  S
C505        C506   1.381       .  A
C505        C526   1.440       .  S
C506        H508   1.082       .  S
O509       Cu517   2.014   1_445  S
O509        C519   1.277       .  A
O510       Cu517   2.014       .  S
O510        C520   1.277       .  A
O511       Cu517   2.015   1_455  S
O511        C521   1.277       .  A
O512       Cu517   2.014   1_545  S
O512        C522   1.277       .  A
O513       Cu518   2.014   1_545  S
O513        C522   1.277       .  A
O514       Cu518   2.014   1_455  S
O514        C521   1.277       .  A
O515       Cu518   2.015       .  S
O515        C520   1.277       .  A
O516       Cu518   2.015   1_445  S
O516        C519   1.277       .  A
Cu517      Cu518   2.378       .  S
C519        C523   1.439       .  S
C520        C538   1.439       .  S
C521        C531   1.439       .  S
C522        C530   1.439       .  S
C523        C524   1.208       .  T
C524        C525   1.415       .  S
C525        C526   1.208       .  T
C527        C528   1.208       .  T
C528        C529   1.415       .  S
C529        C530   1.208       .  T
C531        C532   1.208       .  T
C532        C533   1.415       .  S
C533        C534   1.208       .  T
C535        C536   1.208       .  T
C536        C537   1.415       .  S
C537        C538   1.208       .  T
C539        C540   1.205       .  T
C541        C542   1.205       .  T
C543        C544   1.208       .  T
C544        C545   1.415       .  S
C545        C546   1.208       .  T
C547        C548   1.208       .  T
C548        C549   1.415       .  S
C549        C550   1.208       .  T
C551        C552   1.208       .  T
C552        C553   1.415       .  S
C553        C554   1.208       .  T
C555        C556   1.208       .  T
C556        C557   1.415       .  S
C557        C558   1.208       .  T
C559        C560   1.205       .  T
C561        C562   1.207       .  T
C562        C563   1.415       .  S
C563        C564   1.208       .  T
C565        C566   1.208       .  T
C566        C567   1.415       .  S
C567        C568   1.208       .  T
C569        C570   1.208       .  T
C570        C571   1.415       .  S
C571        C572   1.208       .  T
C573        C574   1.208       .  T
C574        C575   1.415       .  S
C575        C576   1.207       .  T
C577        C578   1.205       .  T
C579        C580   1.205       .  T
C581        C582   1.204       .  T
C583        C584   1.205       .  T
C585        C586   1.205       .  T
C587        C588   1.204       .  T
C589        C590   1.205       .  T
C591        C592   1.205       .  T
C593        C594   1.205       .  T
C595        C596   1.205       .  T
C597        C598   1.204       .  T
C599        C600   1.205       .  T
C601        C602   1.205       .  T
C603        C604   1.204       .  T
C605        C606   1.205       .  T
C607        C608   1.205       .  T
C609        C610   1.205       .  T
C611        C612   1.205       .  T
C613        C614   1.205       .  T
C615        C616   1.205       .  T
C617        C618   1.205       .  T
