geometry optimzed in LAMMPS
_audit_creation_date              2020-12-01 
_audit_creation_method            'lammps2cif' 
_symmetry_space_group_name_H-M    'P1' 
_symmetry_Int_Tables_number       1 
_symmetry_cell_setting            triclinic 
loop_ 
_symmetry_equiv_pos_as_xyz 
  x,y,z 
_cell_length_a                    47.63030195 
_cell_length_b                    47.6413315651681 
_cell_length_c                    47.54704509857114 
_cell_angle_alpha                 90.1600965490312 
_cell_angle_beta                  89.96002704911055 
_cell_angle_gamma                 89.9243330939626 
loop_ 
_atom_site_label 
_atom_site_type_symbol 
_atom_site_fract_x 
_atom_site_fract_y 
_atom_site_fract_z 
_atom_site_charge 
N1          N  0.20069512  0.78449804  0.45935098    -0.27500
N2          N  0.18238185  0.79973377  0.44518518    -0.35300
C3          C  0.18626256  0.79551783  0.41751081     0.00900
C4          C  0.20821212  0.77668903  0.41391230     0.06900
C5          C  0.21678151  0.77015703  0.44103508    -0.06200
H6          H  0.17425810  0.80595960  0.40132097     0.07600
H7          H  0.23351274  0.75611732  0.44720406     0.08800
Cu8        Cu  0.15389460  0.82661281  0.46395233     0.44200
Cu9        Cu  0.20348485  0.78462929  0.50289670     0.42000
Cu10       Cu  0.15688331  0.83179731  0.54014347     0.43900
N11         N  0.12938009  0.85377468  0.48739273    -0.34900
N12         N  0.13041537  0.85566409  0.51512711    -0.29100
C13         C  0.11220736  0.87549605  0.52372231    -0.05200
C14         C  0.09925030  0.88663412  0.50025501     0.07000
C15         C  0.11057454  0.87239265  0.47758040     0.00800
H16         H  0.10876964  0.88142789  0.54542599     0.08400
H17         H  0.10556031  0.87530688  0.45559733     0.07500
N18         N  0.18592343  0.80613557  0.56000828    -0.36300
N19         N  0.20285379  0.78885893  0.54634017    -0.28500
C20         C  0.21906888  0.77526296  0.56500174    -0.03700
C21         C  0.21211178  0.78438214  0.59187596     0.04900
C22         C  0.19095259  0.80403035  0.58776659     0.03000
H23         H  0.23493844  0.76006856  0.55921216     0.08100
H24         H  0.17979337  0.81583630  0.60367814     0.06900
N25         N  0.88526351  0.11787096  0.45194164    -0.27500
N26         N  0.90138704  0.09935988  0.43889546    -0.35300
C27         C  0.90016086  0.10391783  0.41104991     0.00900
C28         C  0.88228787  0.12633064  0.40616816     0.06900
C29         C  0.87313639  0.13459202  0.43264190    -0.06200
H30         H  0.91124857  0.09152273  0.39550643     0.07600
H31         H  0.85907027  0.15174777  0.43759682     0.08800
Cu32       Cu  0.92457095  0.06868690  0.45923106     0.44200
Cu33       Cu  0.88155180  0.11992934  0.49546606     0.42000
Cu34       Cu  0.92357636  0.06946551  0.53493672     0.43900
N35         N  0.94720978  0.04073029  0.48367317    -0.34900
N36         N  0.94689630  0.04099127  0.51147341    -0.29100
C37         C  0.96449964  0.02106181  0.52100528    -0.05200
C38         C  0.97645188  0.00768502  0.49806227     0.07000
C39         C  0.96501056  0.02065267  0.47474231     0.00800
H40         H  0.96873770  0.01705401  0.54297617     0.08400
H41         H  0.96972450  0.01626923  0.45291105     0.07500
N42         N  0.89919336  0.10062345  0.55336613    -0.36300
N43         N  0.88361174  0.11863960  0.53911796    -0.28500
C44         C  0.87053486  0.13588463  0.55736927    -0.03700
C45         C  0.87838264  0.12853263  0.58444115     0.04900
C46         C  0.89659394  0.10606656  0.58101436     0.03000
H47         H  0.85676421  0.15287190  0.55126529     0.08100
H48         H  0.90706135  0.09431789  0.59737820     0.06900
N49         N  0.88016588  0.77994700  0.45759809    -0.27500
N50         N  0.89669002  0.79540395  0.44165954    -0.35300
C51         C  0.89086118  0.78966242  0.41443630     0.00900
C52         C  0.86951103  0.76965232  0.41341268     0.06900
C53         C  0.86353660  0.76408489  0.44135315    -0.06200
H54         H  0.90105516  0.79967891  0.39678723     0.07600
H55         H  0.84818093  0.74958852  0.44960592     0.08800
Cu56       Cu  0.92524285  0.82358685  0.45977871     0.44200
Cu57       Cu  0.87999630  0.78117884  0.50076739     0.42000
Cu58       Cu  0.92779563  0.82327562  0.53903369     0.43900
N59         N  0.95022277  0.84978690  0.48495254    -0.34900
N60         N  0.95112210  0.84945438  0.51284056    -0.29100
C61         C  0.96890558  0.86951794  0.52176580    -0.05200
C62         C  0.97970554  0.88320769  0.49857597     0.07000
C63         C  0.96750906  0.87012140  0.47560299     0.00800
H64         H  0.97348577  0.87392350  0.54361346     0.08400
H65         H  0.97079796  0.87513191  0.45367514     0.07500
N66         N  0.89880570  0.79722730  0.55880767    -0.36300
N67         N  0.88076982  0.78235669  0.54392025    -0.28500
C68         C  0.86359599  0.76840917  0.56124009    -0.03700
C69         C  0.87104986  0.77456632  0.58865018     0.04900
C70         C  0.89366219  0.79286981  0.58637550     0.03000
H71         H  0.84704579  0.75453870  0.55421954     0.08100
H72         H  0.90507428  0.80273417  0.60339896     0.06900
N73         N  0.50309773  0.78458987  0.16028385    -0.27500
N74         N  0.48895585  0.80134026  0.14326628    -0.35300
C75         C  0.46133127  0.79790226  0.14778172     0.00900
C76         C  0.45771932  0.77804967  0.16871799     0.06900
C77         C  0.48474884  0.76997499  0.17602684    -0.06200
H78         H  0.44512750  0.80941477  0.13679647     0.07600
H79         H  0.49075740  0.75534068  0.19230622     0.08800
Cu80       Cu  0.50727672  0.82951044  0.11561642     0.44200
Cu81       Cu  0.54669571  0.78369040  0.16270209     0.42000
Cu82       Cu  0.58282138  0.83382878  0.11892238     0.43900
N83         N  0.53072659  0.85634456  0.09063669    -0.34900
N84         N  0.55841007  0.85780675  0.09198941    -0.29100
C85         C  0.56754715  0.87668829  0.07315790    -0.05200
C86         C  0.54454379  0.88769282  0.05929300     0.07000
C87         C  0.52148499  0.87437753  0.07090876     0.00800
H88         H  0.58936746  0.88197704  0.06979221     0.08400
H89         H  0.49967350  0.87745025  0.06538578     0.07500
N90         N  0.60330560  0.80649366  0.14592881    -0.36300
N91         N  0.59014761  0.78786762  0.16167866    -0.28500
C92         C  0.60928865  0.77296206  0.17614673    -0.03700
C93         C  0.63588310  0.78268091  0.16925742     0.04900
C94         C  0.63114376  0.80402291  0.15002407     0.03000
H95         H  0.60409068  0.75644184  0.19079142     0.08100
H96         H  0.64672713  0.81660632  0.13937935     0.06900
N97         N  0.90381227  0.49281687  0.16654821    -0.27500
N98         N  0.91624153  0.50881228  0.14768206    -0.35300
C99         C  0.90938503  0.53585277  0.15313054     0.00900
C100        C  0.89203837  0.53654384  0.17677255     0.06900
C101        C  0.88910389  0.50877492  0.18448548    -0.06200
H102        H  0.91647077  0.55359325  0.14089622     0.07600
H103        H  0.87634954  0.50047919  0.20135898     0.08800
Cu104      Cu  0.94161815  0.49052326  0.11650397     0.44200
Cu105      Cu  0.90490281  0.44987210  0.16622878     0.42000
Cu106      Cu  0.94032353  0.41067243  0.11489494     0.43900
N107        N  0.96694109  0.46440715  0.09132429    -0.34900
N108        N  0.96636155  0.43654379  0.09099246    -0.29100
C109        C  0.98612311  0.42706232  0.07308642    -0.05200
C110        C  0.99987858  0.44978610  0.06156252     0.07000
C111        C  0.98715816  0.47313056  0.07350109     0.00800
H112        H  0.99023108  0.40511606  0.06885209     0.08400
H113        H  0.99232582  0.49488881  0.06965042     0.07500
N114        N  0.91439558  0.39158363  0.14452660    -0.36300
N115        N  0.90181181  0.40709399  0.16377017    -0.28500
C116        C  0.88679279  0.39071115  0.18087443    -0.03700
C117        C  0.88996970  0.36312427  0.17234528     0.04900
C118        C  0.90758642  0.36442049  0.14896497     0.03000
H119        H  0.87423015  0.39861160  0.19810801     0.08100
H120        H  0.91521911  0.34700546  0.13646929     0.06900
N121        N  0.89656031  0.49664874  0.84581380    -0.27500
N122        N  0.91362857  0.51024410  0.86284968    -0.35300
C123        C  0.90831740  0.53795266  0.86079293     0.00900
C124        C  0.88682477  0.54178584  0.84136011     0.06900
C125        C  0.88000538  0.51498655  0.83238962    -0.06200
H126        H  0.91935471  0.55401984  0.87249193     0.07600
H127        H  0.86385166  0.50898276  0.81759539     0.08800
Cu128      Cu  0.94210857  0.48850651  0.88777462     0.44200
Cu129      Cu  0.89593207  0.45380144  0.84257852     0.42000
Cu130      Cu  0.93938879  0.40960250  0.88547740     0.43900
N131        N  0.96732728  0.46163356  0.91125055    -0.34900
N132        N  0.96649464  0.43379640  0.91096035    -0.29100
C133        C  0.98596525  0.42412095  0.92918712    -0.05200
C134        C  0.99962776  0.44686732  0.94131421     0.07000
C135        C  0.98718880  0.47018801  0.92944758     0.00800
H136        H  0.98994381  0.40214807  0.93326219     0.08400
H137        H  0.99217473  0.49192731  0.93374696     0.07500
N138        N  0.91041665  0.39370888  0.85593926    -0.36300
N139        N  0.89503321  0.41088583  0.84055642    -0.28500
C140        C  0.87904196  0.39612359  0.82278496    -0.03700
C141        C  0.88436017  0.36789964  0.82662999     0.04900
C142        C  0.90431068  0.36705088  0.84811429     0.03000
H143        H  0.86454436  0.40556414  0.80807498     0.08100
H144        H  0.91413159  0.34854241  0.85685414     0.06900
N145        N  0.51387427  0.11161534  0.83469173    -0.27500
N146        N  0.49772209  0.09474371  0.84955609    -0.35300
C147        C  0.47062183  0.10067839  0.84371347     0.00900
C148        C  0.46984242  0.12249805  0.82428900     0.06900
C149        C  0.49779499  0.12863297  0.81910642    -0.06200
H150        H  0.45289597  0.09023645  0.85328963     0.07600
H151        H  0.50612547  0.14428270  0.80498162     0.08800
Cu152      Cu  0.51488596  0.06548873  0.87726331     0.44200
Cu153      Cu  0.55712601  0.11147399  0.83600316     0.42000
Cu154      Cu  0.59335713  0.06258658  0.87921886     0.43900
N155        N  0.53861814  0.03957125  0.90345705    -0.34900
N156        N  0.56643166  0.03854303  0.90418277    -0.29100
C157        C  0.57435615  0.01972436  0.92372820    -0.05200
C158        C  0.55051696  0.00840852  0.93586103     0.07000
C159        C  0.52827895  0.02143509  0.92250657     0.00800
H160        H  0.59592535  0.01468397  0.92875468     0.08400
H161        H  0.50616443  0.01803402  0.92636554     0.07500
N162        N  0.61421434  0.09035421  0.85244828    -0.36300
N163        N  0.60029620  0.10866987  0.83701681    -0.28500
C164        C  0.61849751  0.12406660  0.82205064    -0.03700
C165        C  0.64549692  0.11512795  0.82812069     0.04900
C166        C  0.64193030  0.09357164  0.84751620     0.03000
H167        H  0.61229926  0.14026803  0.80742372     0.08100
H168        H  0.65822474  0.08130866  0.85751002     0.06900
N169        N  0.21340493  0.40588194  0.82716003    -0.27500
N170        N  0.20012333  0.38967652  0.84525887    -0.35300
C171        C  0.20568564  0.36264115  0.83865432     0.00900
C172        C  0.22323923  0.36209940  0.81516893     0.06900
C173        C  0.22755501  0.39002007  0.80868303    -0.06200
H174        H  0.19764134  0.34480864  0.85013605     0.07600
H175        H  0.24074616  0.39849454  0.79225876     0.08800
Cu176      Cu  0.17586491  0.40703249  0.87773161     0.44200
Cu177      Cu  0.21401650  0.44882126  0.82884715     0.42000
Cu178      Cu  0.17838471  0.48610293  0.88183902     0.43900
N179        N  0.15307281  0.43198128  0.90614398    -0.34900
N180        N  0.15401117  0.45979894  0.90743759    -0.29100
C181        C  0.13610146  0.46866556  0.92752362    -0.05200
C182        C  0.12322611  0.44555962  0.93946937     0.07000
C183        C  0.13452033  0.42265257  0.92544036     0.00800
H184        H  0.13246409  0.49046587  0.93282814     0.08400
H185        H  0.12933111  0.40080492  0.92871293     0.07500
N186        N  0.20443098  0.50623619  0.85259574    -0.36300
N187        N  0.21767331  0.49143639  0.83319238    -0.28500
C188        C  0.23403763  0.50832490  0.81781698    -0.03700
C189        C  0.23107378  0.53544398  0.82769754     0.04900
C190        C  0.21189077  0.53346398  0.84974169     0.03000
H191        H  0.24717210  0.50124869  0.80061427     0.08100
H192        H  0.20456235  0.55035712  0.86311271     0.06900
N193        N  0.59303843  0.79162255  0.83060932    -0.27500
N194        N  0.60742684  0.80353878  0.85111409    -0.35300
C195        C  0.63403102  0.79375127  0.85030274     0.00900
C196        C  0.63611972  0.77447408  0.82837239     0.06900
C197        C  0.60966747  0.77380588  0.81645944    -0.06200
H198        H  0.65042952  0.79986016  0.86479607     0.07600
H199        H  0.60295022  0.76153361  0.79852284     0.08800
Cu200      Cu  0.58819062  0.83151612  0.87889482     0.44200
Cu201      Cu  0.55128862  0.79925937  0.82282533     0.42000
Cu202      Cu  0.51022988  0.83971584  0.87029164     0.43900
N203        N  0.56234078  0.85722962  0.90335087    -0.34900
N204        N  0.53477684  0.85993812  0.90047493    -0.29100
C205        C  0.52530353  0.87835731  0.91980263    -0.05200
C206        C  0.54786502  0.88772626  0.93548607     0.07000
C207        C  0.57097881  0.87394771  0.92450160     0.00800
H208        H  0.50361895  0.88479774  0.92194785     0.08400
H209        H  0.59256843  0.87608180  0.93120952     0.07500
N210        N  0.49255258  0.81692362  0.83729792    -0.36300
N211        N  0.50843582  0.80283010  0.81941964    -0.28500
C212        C  0.49212698  0.78889735  0.80119037    -0.03700
C213        C  0.46431598  0.79416940  0.80779356     0.04900
C214        C  0.46537671  0.81213945  0.83091331     0.03000
H215        H  0.50011568  0.77461136  0.78539427     0.08100
H216        H  0.44781239  0.82045767  0.84272342     0.06900
N217        N  0.09261728  0.28213146  0.33587712    -0.27500
N218        N  0.10860934  0.29794166  0.35219452    -0.35300
C219        C  0.13566712  0.29040350  0.34819721     0.00900
C220        C  0.13653656  0.26860826  0.32869218     0.06900
C221        C  0.10880718  0.26412247  0.32138496    -0.06200
H222        H  0.15328216  0.29954025  0.35925381     0.07600
H223        H  0.10081086  0.24877951  0.30662159     0.08800
Cu224      Cu  0.09189027  0.32776234  0.38010845     0.44200
Cu225      Cu  0.04932437  0.28391547  0.33435360     0.42000
Cu226      Cu  0.01447613  0.32795869  0.38364569     0.43900
N227        N  0.06818206  0.35451097  0.40604648    -0.34900
N228        N  0.04038812  0.35430836  0.40716362    -0.29100
C229        C  0.03170500  0.37387748  0.42570485    -0.05200
C230        C  0.05498510  0.38712891  0.43692320     0.07000
C231        C  0.07779247  0.37429149  0.42400840     0.00800
H232        H  0.00994740  0.37806125  0.43075378     0.08400
H233        H  0.09974475  0.37889633  0.42750010     0.07500
N234        N  0.99294458  0.30147098  0.35621981    -0.36300
N235        N  0.00612373  0.28565956  0.33758194    -0.28500
C236        C  0.98716840  0.27147136  0.32223347    -0.03700
C237        C  0.96049232  0.27859531  0.33158286     0.04900
C238        C  0.96507212  0.29767502  0.35329519     0.03000
H239        H  0.99260777  0.25687091  0.30565292     0.08100
H240        H  0.94937767  0.30841654  0.36576461     0.06900
C241        C  0.27967631  0.20542600  0.26705316     0.02100
C242        C  0.29071120  0.18069661  0.27941182     0.02100
C243        C  0.31319719  0.16628083  0.26619835     0.02100
C244        C  0.32581845  0.17769947  0.24170774     0.02100
C245        C  0.31552940  0.20307553  0.23005047     0.02100
C246        C  0.29148069  0.21604812  0.24188677     0.02100
N247        N  0.38873621  0.98837306  0.35271619    -0.27500
N248        N  0.40633092  0.00257171  0.36883889    -0.35300
C249        C  0.40187757  0.03022672  0.36516097     0.00900
C250        C  0.38047982  0.03381722  0.34564356     0.06900
C251        C  0.37271354  0.00666877  0.33825717    -0.06200
H252        H  0.41386480  0.04648218  0.37553240     0.07600
H253        H  0.35662079  0.00055369  0.32343163     0.08800
Cu254      Cu  0.43651977  0.98371870  0.39433552     0.44200
Cu255      Cu  0.38822376  0.94464804  0.35058868     0.42000
Cu256      Cu  0.44152013  0.90781498  0.39125574     0.43900
N257        N  0.46556305  0.96040068  0.41732150    -0.34900
N258        N  0.46730310  0.93270277  0.41620004    -0.29100
C259        C  0.48793089  0.92406876  0.43348775    -0.05200
C260        C  0.49978327  0.94743110  0.44607069     0.07000
C261        C  0.48511844  0.97010873  0.43533026     0.00800
H262        H  0.49383723  0.90237604  0.43666117     0.08400
H263        H  0.48833504  0.99203721  0.44030900     0.07500
N264        N  0.41313207  0.88786198  0.36473329    -0.36300
N265        N  0.39354932  0.90119382  0.35027467    -0.28500
C266        C  0.37880843  0.88231715  0.33525121    -0.03700
C267        C  0.38962449  0.85571301  0.34032627     0.04900
C268        C  0.41141389  0.86019282  0.35918991     0.03000
H269        H  0.36175915  0.88777197  0.32129067     0.08100
H270        H  0.42501486  0.84453833  0.36843001     0.06900
C271        C  0.27762672  0.68583334  0.27155645     0.02100
C272        C  0.29056034  0.70963481  0.28380485     0.02100
C273        C  0.31429723  0.72204066  0.27097804     0.02100
C274        C  0.32585345  0.70968788  0.24654683     0.02100
C275        C  0.31201128  0.68693321  0.23340404     0.02100
C276        C  0.28784509  0.67503856  0.24580358     0.02100
C277        C  0.79061842  0.17670977  0.25405645     0.02100
C278        C  0.81449738  0.18949533  0.26621093     0.02100
C279        C  0.82821078  0.21171359  0.25204474     0.02100
C280        C  0.81699907  0.22209774  0.22643227     0.02100
C281        C  0.79184146  0.21060711  0.21555793     0.02100
C282        C  0.77865337  0.18797617  0.22939166     0.02100
N283        N  0.71605320  0.91028759  0.32847110    -0.27500
N284        N  0.70042996  0.89447986  0.34506170    -0.35300
C285        C  0.70702181  0.86729064  0.34031748     0.00900
C286        C  0.72797815  0.86604779  0.31991274     0.06900
C287        C  0.73296496  0.89382257  0.31298499    -0.06200
H288        H  0.69765558  0.84981770  0.35132739     0.07600
H289        H  0.74769780  0.90171002  0.29763369     0.08800
Cu290      Cu  0.67207936  0.91161093  0.37417383     0.44200
Cu291      Cu  0.71456864  0.95366533  0.32698862     0.42000
Cu292      Cu  0.66752990  0.98878398  0.37347546     0.43900
N293        N  0.64824675  0.93556762  0.40253708    -0.34900
N294        N  0.64689260  0.96333377  0.40216553    -0.29100
C295        C  0.63029392  0.97219266  0.42331408    -0.05200
C296        C  0.62063604  0.94900224  0.43775199     0.07000
C297        C  0.63239398  0.92611822  0.42402088     0.00800
H298        H  0.62546796  0.99396318  0.42771294     0.08400
H299        H  0.62955158  0.90420852  0.42919406     0.07500
N300        N  0.69226204  0.00993648  0.34455362    -0.36300
N301        N  0.71005843  0.99685787  0.32772448    -0.28500
C302        C  0.72402099  0.01594135  0.31236687    -0.03700
C303        C  0.71451485  0.04247978  0.31980685     0.04900
C304        C  0.69427361  0.03776878  0.34026576     0.03000
H305        H  0.73989364  0.01075238  0.29693409     0.08100
H306        H  0.68239893  0.05338321  0.35177525     0.06900
C307        C  0.81036290  0.67365041  0.23024941     0.02100
C308        C  0.82351844  0.68657429  0.25372475     0.02100
C309        C  0.81072619  0.70986153  0.26716490     0.02100
C310        C  0.78447230  0.72000309  0.25758410     0.02100
C311        C  0.77104498  0.70684719  0.23446668     0.02100
C312        C  0.78392461  0.68358512  0.22080318     0.02100
N313        N  0.00050797  0.61082077  0.33949241    -0.27500
N314        N  0.98728326  0.59345594  0.35654422    -0.35300
C315        C  0.95940492  0.59614928  0.35238690     0.00900
C316        C  0.95492501  0.61613681  0.33155847     0.06900
C317        C  0.98161475  0.62489483  0.32399208    -0.06200
H318        H  0.94363721  0.58428231  0.36359031     0.07600
H319        H  0.98706098  0.64067997  0.30864640     0.08800
Cu320      Cu  0.00889758  0.56710865  0.38413770     0.44200
Cu321      Cu  0.04369401  0.61460488  0.33795100     0.42000
Cu322      Cu  0.08649050  0.57022196  0.38189577     0.43900
N323        N  0.03571227  0.54260582  0.40873817    -0.34900
N324        N  0.06349950  0.54364876  0.40797332    -0.29100
C325        C  0.07392520  0.52472218  0.42623664    -0.05200
C326        C  0.05169387  0.51111723  0.43905345     0.07000
C327        C  0.02784153  0.52301111  0.42748778     0.00800
H328        H  0.09605177  0.52104164  0.42977970     0.08400
H329        H  0.00628254  0.51769227  0.43222789     0.07500
N330        N  0.10309403  0.59864290  0.35309335    -0.36300
N331        N  0.08707303  0.61474316  0.33719146    -0.28500
C332        C  0.10338248  0.63045201  0.32045803    -0.03700
C333        C  0.13123427  0.62408659  0.32591507     0.04900
C334        C  0.13022083  0.60380857  0.34686920     0.03000
H335        H  0.09535539  0.64552777  0.30553091     0.08100
H336        H  0.14780540  0.59326275  0.35660237     0.06900
N337        N  0.39108221  0.27682518  0.04507674    -0.27500
N338        N  0.40450455  0.29572294  0.06030482    -0.35300
C339        C  0.39653621  0.29280106  0.08746578     0.00900
C340        C  0.37678820  0.27130066  0.08897834     0.06900
C341        C  0.37408235  0.26176353  0.06164863    -0.06200
H342        H  0.40376920  0.30590406  0.10459544     0.07600
H343        H  0.36055932  0.24509881  0.05419480     0.08800
Cu344      Cu  0.43076012  0.32515377  0.04075770     0.44200
Cu345      Cu  0.39469670  0.27313562  0.00214441     0.42000
Cu346      Cu  0.42965122  0.32422389  0.96114225     0.43900
N347        N  0.45321051  0.35225532  0.01420319    -0.34900
N348        N  0.45254519  0.35206354  0.98629258    -0.29100
C349        C  0.46974709  0.37227717  0.97658547    -0.05200
C350        C  0.48186769  0.38581974  0.99927395     0.07000
C351        C  0.47089231  0.37262882  0.02275127     0.00800
H352        H  0.47340543  0.37656370  0.95456006     0.08400
H353        H  0.47560696  0.37732724  0.04450798     0.07500
N354        N  0.40629423  0.29181407  0.94298847    -0.36300
N355        N  0.39417773  0.27273455  0.95893210    -0.28500
C356        C  0.38009514  0.25453996  0.94275947    -0.03700
C357        C  0.38320866  0.26225477  0.91486153     0.04900
C358        C  0.40009053  0.28615594  0.91583387     0.03000
H359        H  0.36777026  0.23747517  0.95113450     0.08100
H360        H  0.40707566  0.29869897  0.89825429     0.06900
C361        C  0.29172535  0.21946441  0.75800328     0.02100
C362        C  0.31511984  0.20667712  0.77107417     0.02100
C363        C  0.32558663  0.18090018  0.76066380     0.02100
C364        C  0.31367843  0.16887537  0.73620327     0.02100
C365        C  0.29193994  0.18285188  0.72166167     0.02100
C366        C  0.28089229  0.20818788  0.73260049     0.02100
N367        N  0.39797142  0.90431367  0.66270167    -0.27500
N368        N  0.41408347  0.89060135  0.64467954    -0.35300
C369        C  0.40830087  0.86301525  0.64635976     0.00900
C370        C  0.38751428  0.85907374  0.66649092     0.06900
C371        C  0.38157080  0.88588691  0.67635063    -0.06200
H372        H  0.41873881  0.84709051  0.63394344     0.07600
H373        H  0.36631185  0.89181803  0.69212116     0.08800
Cu374      Cu  0.44357627  0.91007987  0.61900023     0.44200
Cu375      Cu  0.39877108  0.94745730  0.66794053     0.42000
Cu376      Cu  0.45093486  0.98519501  0.62730432     0.43900
N377        N  0.47246254  0.93408997  0.59670475    -0.34900
N378        N  0.47513356  0.96155407  0.59978232    -0.29100
C379        C  0.49511306  0.97086352  0.58209387    -0.05200
C380        C  0.50562873  0.94814270  0.56726910     0.07000
C381        C  0.49081473  0.92517180  0.57706793     0.00800
H382        H  0.50132828  0.99259227  0.58002351     0.08400
H383        H  0.49289078  0.90362960  0.57012193     0.07500
N384        N  0.42244694  0.00434843  0.65415918    -0.36300
N385        N  0.40324180  0.99065680  0.66872371    -0.28500
C386        C  0.38725644  0.00925689  0.68278806    -0.03700
C387        C  0.39684166  0.03606493  0.67681664     0.04900
C388        C  0.41926009  0.03202269  0.65861773     0.03000
H389        H  0.36982573  0.00352132  0.69615592     0.08100
H390        H  0.43188642  0.04795536  0.64857264     0.06900
C391        C  0.28838943  0.67869091  0.76179903     0.02100
C392        C  0.27690797  0.68897105  0.73638038     0.02100
C393        C  0.28797010  0.71353289  0.72390940     0.02100
C394        C  0.31038529  0.72787744  0.73696400     0.02100
C395        C  0.32297124  0.71669306  0.76146157     0.02100
C396        C  0.31231454  0.69181266  0.77360134     0.02100
N397        N  0.00839580  0.60311536  0.66911087    -0.27500
N398        N  0.99253067  0.58725687  0.65284505    -0.35300
C399        C  0.96538908  0.59155185  0.66026474     0.00900
C400        C  0.96467012  0.61081275  0.68247285     0.06900
C401        C  0.99242305  0.61753521  0.68722248    -0.06200
H402        H  0.94762523  0.58134654  0.65047670     0.07600
H403        H  0.00060410  0.63243493  0.70234409     0.08800
Cu404      Cu  0.01163071  0.56131755  0.62230181     0.44200
Cu405      Cu  0.05093677  0.60603341  0.66589801     0.42000
Cu406      Cu  0.09154625  0.56498214  0.61990760     0.43900
N407        N  0.03818783  0.53805039  0.59529615    -0.34900
N408        N  0.06605410  0.53917718  0.59470697    -0.29100
C409        C  0.07555449  0.52129361  0.57479917    -0.05200
C410        C  0.05282645  0.50829400  0.56216266     0.07000
C411        C  0.02953228  0.51942270  0.57570403     0.00800
H412        H  0.09748663  0.51806550  0.56981571     0.08400
H413        H  0.00779003  0.51431684  0.57161886     0.07500
N414        N  0.10956027  0.59512412  0.64659622    -0.36300
N415        N  0.09336180  0.61052644  0.66302479    -0.28500
C416        C  0.10891959  0.62897631  0.67741064    -0.03700
C417        C  0.13668142  0.62523745  0.67000646     0.04900
C418        C  0.13643460  0.60337512  0.65043528     0.03000
H419        H  0.10047710  0.64371750  0.69257395     0.08100
H420        H  0.15432271  0.59446932  0.63955871     0.06900
N421        N  0.01067016  0.28769344  0.66027558    -0.27500
N422        N  0.99547347  0.30449496  0.64441419    -0.35300
C423        C  0.96814954  0.30089515  0.65107642     0.00900
C424        C  0.96638047  0.28088360  0.67234673     0.06900
C425        C  0.99390328  0.27306218  0.67738111    -0.06200
H426        H  0.95100725  0.31228594  0.64148922     0.07600
H427        H  0.00150661  0.25777829  0.69230904     0.08800
Cu428      Cu  0.01512929  0.33109846  0.61574264     0.44200
Cu429      Cu  0.05354231  0.28581112  0.65894557     0.42000
Cu430      Cu  0.09476154  0.33019775  0.61591945     0.43900
N431        N  0.04137455  0.35526474  0.59025988    -0.34900
N432        N  0.06924113  0.35518662  0.59036637    -0.29100
C433        C  0.07846576  0.37396413  0.57134260    -0.05200
C434        C  0.05544612  0.38637139  0.55872244     0.07000
C435        C  0.03235737  0.37400904  0.57117222     0.00800
H436        H  0.10034227  0.37836083  0.56714891     0.08400
H437        H  0.01050963  0.37848562  0.56686734     0.07500
N438        N  0.11261714  0.30180678  0.64416383    -0.36300
N439        N  0.09646168  0.28557918  0.65970305    -0.28500
C440        C  0.11233206  0.26976317  0.67659099    -0.03700
C441        C  0.14019690  0.27614913  0.67179707     0.04900
C442        C  0.13968548  0.29652768  0.65083942     0.03000
H443        H  0.10393015  0.25469366  0.69131393     0.08100
H444        H  0.15752097  0.30713457  0.64163335     0.06900
C445        C  0.78314400  0.18827200  0.73028699     0.02100
C446        C  0.80629869  0.20174808  0.71749477     0.02100
C447        C  0.81993989  0.22417599  0.73140293     0.02100
C448        C  0.81104259  0.23252703  0.75863763     0.02100
C449        C  0.78710271  0.21978395  0.77087481     0.02100
C450        C  0.77296479  0.19788920  0.75652070     0.02100
N451        N  0.72971986  0.90705439  0.66362439    -0.27500
N452        N  0.71151946  0.89358970  0.64758889    -0.35300
C453        C  0.71162187  0.86626648  0.65446940     0.00900
C454        C  0.73087023  0.86216829  0.67593376     0.06900
C455        C  0.74200541  0.88859060  0.68112002    -0.06200
H456        H  0.69864818  0.85057501  0.64437984     0.07600
H457        H  0.75750525  0.89417500  0.69677534     0.08800
Cu458      Cu  0.68657021  0.91305807  0.61778285     0.44200
Cu459      Cu  0.73562469  0.95012438  0.66158325     0.42000
Cu460      Cu  0.68850520  0.98902368  0.61537218     0.43900
N461        N  0.66133726  0.93690892  0.59161745    -0.34900
N462        N  0.66174083  0.96465330  0.59085056    -0.29100
C463        C  0.64217150  0.97354744  0.57248101    -0.05200
C464        C  0.62887485  0.95026059  0.56121284     0.07000
C465        C  0.64158284  0.92741500  0.57378540     0.00800
H466        H  0.63780245  0.99533950  0.56786043     0.08400
H467        H  0.63660838  0.90549986  0.57051380     0.07500
N468        N  0.71750074  0.00781503  0.64214616    -0.36300
N469        N  0.73501118  0.99352276  0.65826780    -0.28500
C470        C  0.75097887  0.01162254  0.67287983    -0.03700
C471        C  0.74310299  0.03869975  0.66586125     0.04900
C472        C  0.72173846  0.03546207  0.64633189     0.03000
H473        H  0.76664507  0.00542324  0.68812168     0.08100
H474        H  0.71016911  0.05193319  0.63583644     0.06900
C475        C  0.79525803  0.72525867  0.74798979     0.02100
C476        C  0.81773806  0.71120846  0.73442055     0.02100
C477        C  0.82614443  0.68428582  0.74354203     0.02100
C478        C  0.81230373  0.67158218  0.76652682     0.02100
C479        C  0.78907809  0.68498536  0.77937747     0.02100
C480        C  0.78076797  0.71209430  0.77035084     0.02100
N481        N  0.37378206  0.61235253  0.96245380    -0.27500
N482        N  0.39056945  0.59731143  0.94613528    -0.35300
C483        C  0.38563147  0.60433043  0.91909732     0.00900
C484        C  0.36460399  0.62461304  0.91845997     0.06900
C485        C  0.35778338  0.62907954  0.94642648    -0.06200
H486        H  0.39625771  0.59500634  0.90125590     0.07600
H487        H  0.34244634  0.64364123  0.95477442     0.08800
Cu488      Cu  0.41893037  0.56760390  0.96186160     0.44200
Cu489      Cu  0.37252767  0.61061260  0.00591010     0.42000
Cu490      Cu  0.41791779  0.56148670  0.03845836     0.43900
N491        N  0.44435546  0.53991714  0.98469663    -0.34900
N492        N  0.44367112  0.53801596  0.01245309    -0.29100
C493        C  0.46271445  0.51902829  0.02095478    -0.05200
C494        C  0.47612881  0.50830390  0.99753147     0.07000
C495        C  0.46396671  0.52193932  0.97483752     0.00800
H496        H  0.46665792  0.51363410  0.04268128     0.08400
H497        H  0.46922558  0.51926356  0.95286411     0.07500
N498        N  0.39208665  0.58802065  0.06117782    -0.36300
N499        N  0.37536465  0.60649919  0.04910545    -0.28500
C500        C  0.36191182  0.62124210  0.06914922    -0.03700
C501        C  0.37056399  0.61148090  0.09521219     0.04900
C502        C  0.38970255  0.59034616  0.08925194     0.03000
H503        H  0.34684717  0.63770802  0.06494764     0.08100
H504        H  0.40147973  0.57788648  0.10413816     0.06900
N505        N  0.71006673  0.29428208  0.04053151    -0.27500
N506        N  0.69284589  0.31099453  0.05458063    -0.35300
C507        C  0.69690649  0.30727526  0.08232700     0.00900
C508        C  0.71766017  0.28716221  0.08600633     0.06900
C509        C  0.72545695  0.27944461  0.05895090    -0.06200
H510        H  0.68540925  0.31833646  0.09854814     0.07600
H511        H  0.74150419  0.26451094  0.05294024     0.08800
Cu512      Cu  0.66461260  0.33823215  0.03554210     0.44200
Cu513      Cu  0.71271112  0.29271549  0.99695787     0.42000
Cu514      Cu  0.66706011  0.34068049  0.95968525     0.43900
N515        N  0.63812513  0.36319691  0.01153258    -0.34900
N516        N  0.63894018  0.36403531  0.98374599    -0.29100
C517        C  0.61891273  0.38173925  0.97454687    -0.05200
C518        C  0.60484286  0.39254187  0.99766450     0.07000
C519        C  0.61761725  0.38038534  0.02075847     0.00800
H520        H  0.61488632  0.38636474  0.95266050     0.08400
H521        H  0.61231979  0.38366124  0.04264515     0.07500
N522        N  0.69617170  0.31464199  0.93998420    -0.36300
N523        N  0.71245872  0.29668717  0.95347931    -0.28500
C524        C  0.72838894  0.28273988  0.93465135    -0.03700
C525        C  0.72198628  0.29252756  0.90796625     0.04900
C526        C  0.70145885  0.31275974  0.91225761     0.03000
H527        H  0.74377878  0.26694888  0.94009317     0.08100
H528        H  0.69078560  0.32498461  0.89638759     0.06900
N529        N  0.68102250  0.62742771  0.04220258    -0.27500
N530        N  0.67250497  0.60607805  0.05756220    -0.35300
C531        C  0.68121627  0.61017714  0.08430915     0.00900
C532        C  0.69592375  0.63545656  0.08554594     0.06900
C533        C  0.69520298  0.64559326  0.05831382    -0.06200
H534        H  0.67772944  0.59556643  0.10131059     0.07600
H535        H  0.70564897  0.66400380  0.05019648     0.08800
Cu536      Cu  0.65120912  0.57277163  0.03847434     0.44200
Cu537      Cu  0.67778015  0.62884672  0.99925846     0.42000
Cu538      Cu  0.65538136  0.57081618  0.95888690     0.43900
N539        N  0.62925666  0.54540422  0.01193214    -0.34900
N540        N  0.63056994  0.54471468  0.98404989    -0.29100
C541        C  0.61249900  0.52513697  0.97448725    -0.05200
C542        C  0.59922895  0.51298234  0.99729174     0.07000
C543        C  0.61040443  0.52626923  0.02061632     0.00800
H544        H  0.60910391  0.52030578  0.95251488     0.08400
H545        H  0.60496833  0.52255790  0.04238100     0.07500
N546        N  0.67878696  0.60351563  0.94141898    -0.36300
N547        N  0.68571134  0.62533074  0.95703562    -0.28500
C548        C  0.70123332  0.64315714  0.94195658    -0.03700
C549        C  0.70461540  0.63236729  0.91509352     0.04900
C550        C  0.68990480  0.60703216  0.91550128     0.03000
H551        H  0.71006096  0.66217838  0.95063591     0.08100
H552        H  0.68791337  0.59200911  0.89853104     0.06900
N553        N  0.59807291  0.10141842  0.16511554    -0.27500
N554        N  0.61034168  0.08702249  0.14476897    -0.35300
C555        C  0.63824827  0.09118591  0.14606663     0.00900
C556        C  0.64377987  0.10935496  0.16820302     0.06900
C557        C  0.61773864  0.11540261  0.17976580    -0.06200
H558        H  0.65329345  0.08202645  0.13166095     0.07600
H559        H  0.61336656  0.12871478  0.19771214     0.08800
Cu560      Cu  0.58785124  0.06295996  0.11630174     0.44200
Cu561      Cu  0.55515639  0.10082771  0.17180374     0.42000
Cu562      Cu  0.51129469  0.06029861  0.12368806     0.43900
N563        N  0.56161904  0.03919534  0.09096544    -0.34900
N564        N  0.53395338  0.03802305  0.09333747    -0.29100
C565        C  0.52400042  0.01971829  0.07409992    -0.05200
C566        C  0.54653424  0.00889398  0.05911785     0.07000
C567        C  0.56995859  0.02173609  0.07035564     0.00800
H568        H  0.50210990  0.01422506  0.07166482     0.08400
H569        H  0.59160245  0.01828761  0.06434477     0.07500
N570        N  0.49562086  0.08420746  0.15706044    -0.36300
N571        N  0.51188369  0.09831616  0.17462646    -0.28500
C572        C  0.49580154  0.11177192  0.19353999    -0.03700
C573        C  0.46790663  0.10616239  0.18768848     0.04900
C574        C  0.46859578  0.08857992  0.16433131     0.03000
H575        H  0.50393800  0.12551015  0.20973735     0.08100
H576        H  0.45081831  0.07977943  0.15326709     0.06900
N577        N  0.21941876  0.48713256  0.17084262    -0.27500
N578        N  0.20373339  0.50313900  0.15459744    -0.35300
C579        C  0.20783625  0.53017806  0.16220286     0.00900
C580        C  0.22697369  0.53090902  0.18442006     0.06900
C581        C  0.23373045  0.50307026  0.18908074    -0.06200
H582        H  0.19758149  0.54788334  0.15238543     0.07600
H583        H  0.24840226  0.49472662  0.20425452     0.08800
Cu584      Cu  0.17813701  0.48515945  0.12346471     0.44200
Cu585      Cu  0.22178519  0.44441618  0.16746282     0.42000
Cu586      Cu  0.18061869  0.40593043  0.11910359     0.43900
N587        N  0.15454805  0.46014317  0.09570354    -0.34900
N588        N  0.15522920  0.43230764  0.09440182    -0.29100
C589        C  0.13685420  0.42364775  0.07464040    -0.05200
C590        C  0.12399477  0.44692650  0.06288443     0.07000
C591        C  0.13577872  0.46966718  0.07672293     0.00800
H592        H  0.13303005  0.40190171  0.06929624     0.08400
H593        H  0.13083194  0.49158650  0.07346515     0.07500
N594        N  0.20953483  0.38652142  0.14617064    -0.36300
N595        N  0.22494417  0.40181063  0.16342131    -0.28500
C596        C  0.24234085  0.38523592  0.17796701    -0.03700
C597        C  0.23785308  0.35778617  0.16984263     0.04900
C598        C  0.21667300  0.35926142  0.14966679     0.03000
H599        H  0.25679732  0.39273382  0.19383256     0.08100
H600        H  0.20740991  0.34192743  0.13825881     0.06900
N601        N  0.20529385  0.10479799  0.54489206    -0.27500
N602        N  0.18640068  0.09002038  0.55881683    -0.35300
C603        C  0.18999386  0.09439217  0.58659428     0.00900
C604        C  0.21232176  0.11279195  0.59047180     0.06900
C605        C  0.22143094  0.11883783  0.56340641    -0.06200
H606        H  0.17728873  0.08471972  0.60271435     0.07600
H607        H  0.23826454  0.13280205  0.55742634     0.08800
Cu608      Cu  0.15656793  0.06455761  0.53916961     0.44200
Cu609      Cu  0.20798100  0.10588432  0.50120067     0.42000
Cu610      Cu  0.15656845  0.06538546  0.46260546     0.43900
N611        N  0.12964726  0.04037431  0.51435102    -0.34900
N612        N  0.12956893  0.04085930  0.48652379    -0.29100
C613        C  0.11043981  0.02236284  0.47695137    -0.05200
C614        C  0.09788559  0.00957063  0.49981832     0.07000
C615        C  0.11053556  0.02152489  0.52317650     0.00800
H616        H  0.10632616  0.01821653  0.45496398     0.08400
H617        H  0.10647028  0.01656743  0.54498409     0.07500
N618        N  0.18755142  0.08932605  0.44339297    -0.36300
N619        N  0.20627301  0.10422790  0.45747189    -0.28500
C620        C  0.22340492  0.11708629  0.43903574    -0.03700
C621        C  0.21523105  0.10980704  0.41197163     0.04900
C622        C  0.19240385  0.09213320  0.41564932     0.03000
H623        H  0.24081267  0.13037183  0.44497886     0.08100
H624        H  0.18004597  0.08216817  0.39939448     0.06900
O625        O  0.06856343  0.91764833  0.47611998    -0.73100
O626        O  0.00786870  0.97624832  0.47516265    -0.74100
O627        O  0.06758186  0.97754647  0.47597307    -0.62700
O628        O  0.00911132  0.91630813  0.47528058    -0.71100
O629        O  0.00872786  0.91652457  0.52196756    -0.70700
O630        O  0.06678190  0.97786544  0.52265149    -0.61900
O631        O  0.00716959  0.97642280  0.52186055    -0.74500
O632        O  0.06805766  0.91825822  0.52283110    -0.73200
Cu633      Cu  0.03828646  0.94696158  0.47398295     1.04600
Cu634      Cu  0.03763158  0.94730213  0.52393495     1.04300
C635        C  0.07768118  0.90859654  0.49967925     0.93100
C636        C  0.99808132  0.98567137  0.49837404     0.92200
C637        C  0.07639118  0.98731852  0.49943949     0.84400
C638        C  0.00005234  0.90649671  0.49857440     0.90600
O639        O  0.52412193  0.91882214  0.96671008    -0.73100
O640        O  0.52307671  0.97820810  0.02715661    -0.74100
O641        O  0.52534868  0.97846334  0.96707448    -0.62700
O642        O  0.52207776  0.91844999  0.02674643    -0.71100
O643        O  0.56866505  0.91819107  0.02830712    -0.70700
O644        O  0.57192290  0.97695444  0.96814149    -0.61900
O645        O  0.56968337  0.97763529  0.02783058    -0.74500
O646        O  0.57068165  0.91742672  0.96857792    -0.73200
Cu647      Cu  0.52199600  0.94850924  0.99686742     1.04600
Cu648      Cu  0.57182859  0.94750624  0.99828854     1.04300
C649        C  0.54753263  0.90888501  0.95806227     0.93100
C650        C  0.54633763  0.98727902  0.03696678     0.92200
C651        C  0.54917397  0.98697216  0.95808575     0.84400
C652        C  0.54502509  0.90907161  0.03704639     0.90600
O653        O  0.03203604  0.42534267  0.03182983    -0.73100
O654        O  0.09178305  0.42272619  0.97137006    -0.74100
O655        O  0.09219941  0.42400366  0.03156514    -0.62700
O656        O  0.03164340  0.42351017  0.97207015    -0.71100
O657        O  0.03245019  0.47006661  0.97131845    -0.70700
O658        O  0.09284753  0.47055780  0.03124074    -0.61900
O659        O  0.09251430  0.46928984  0.97112519    -0.74500
O660        O  0.03276543  0.47191304  0.03105044    -0.73200
Cu661      Cu  0.06193620  0.42227849  0.00177250     1.04600
Cu662      Cu  0.06271959  0.47206356  0.00113876     1.04300
C663        C  0.02271040  0.44900161  0.04060385     0.93100
C664        C  0.10152159  0.44578828  0.96171004     0.92200
C665        C  0.10201884  0.44721695  0.04085068     0.84400
C666        C  0.02233231  0.44676458  0.96250947     0.90600
O667        O  0.50884954  0.47854797  0.02069760    -0.73100
O668        O  0.57157045  0.42179526  0.02105016    -0.74100
O669        O  0.56858325  0.48127758  0.02049823    -0.62700
O670        O  0.51182495  0.41894418  0.02172128    -0.71100
O671        O  0.51127855  0.41838406  0.97504845    -0.70700
O672        O  0.56865340  0.48085949  0.97381349    -0.61900
O673        O  0.57125547  0.42128072  0.97436406    -0.74500
O674        O  0.50871013  0.47828781  0.97401206    -0.73200
Cu675      Cu  0.54018851  0.45017676  0.02259345     1.04600
Cu676      Cu  0.53992515  0.44966724  0.97266311     1.04300
C677        C  0.49894221  0.48739333  0.99734824     0.93100
C678        C  0.58143097  0.41277085  0.99769942     0.92200
C679        C  0.57777996  0.49071417  0.99712318     0.84400
C680        C  0.50258904  0.40881206  0.99862077     0.90600
O681        O  0.03173395  0.41761133  0.52800760    -0.73100
O682        O  0.02994059  0.47838806  0.46972933    -0.74100
O683        O  0.03160550  0.41851538  0.46829178    -0.62700
O684        O  0.03024168  0.47730361  0.52969006    -0.71100
O685        O  0.07679862  0.47847698  0.52937613    -0.70700
O686        O  0.07817475  0.41938918  0.46784737    -0.61900
O687        O  0.07651663  0.47958909  0.46915092    -0.74500
O688        O  0.07833131  0.41848760  0.52788323    -0.73200
Cu689      Cu  0.02930516  0.44793236  0.49889464     1.04600
Cu690      Cu  0.07910976  0.44904939  0.49852692     1.04300
C691        C  0.05522412  0.40848366  0.53716598     0.93100
C692        C  0.05283722  0.48864620  0.46028648     0.92200
C693        C  0.05499612  0.40945579  0.45861562     0.84400
C694        C  0.05332195  0.48706378  0.53932684     0.90600
O695        O  0.59299103  0.92554810  0.47219638    -0.73100
O696        O  0.53625331  0.92526666  0.53497268    -0.74100
O697        O  0.53341280  0.92485056  0.47533276    -0.62700
O698        O  0.59607513  0.92626558  0.53208957    -0.71100
O699        O  0.59565663  0.97285850  0.53152645    -0.70700
O700        O  0.53223787  0.97143586  0.47563739    -0.61900
O701        O  0.53596702  0.97186469  0.53537887    -0.74500
O702        O  0.59185497  0.97212506  0.47167528    -0.73200
Cu703      Cu  0.56475236  0.92386897  0.50370535     1.04600
Cu704      Cu  0.56394162  0.97370345  0.50357705     1.04300
C705        C  0.60103303  0.94887427  0.46175571     0.93100
C706        C  0.52703297  0.94845501  0.54491941     0.92200
C707        C  0.52289419  0.94794114  0.46662853     0.84400
C708        C  0.60579944  0.94978183  0.54065156     0.90600
C709        C  0.72168481  0.64508737  0.89213301    -0.05400
C710        C  0.73592609  0.67057282  0.89696294    -0.05400
C711        C  0.75245277  0.68278132  0.87618762    -0.23500
C712        C  0.75505297  0.66998746  0.84987721     0.18700
C713        C  0.74071325  0.64459956  0.84431793     0.15900
C714        C  0.72421727  0.63218499  0.86552794    -0.18600
C715        C  0.74300340  0.63227470  0.81756047    -0.20400
C716        C  0.75895050  0.64526119  0.79655953    -0.12900
C717        C  0.77324311  0.67046226  0.80210186     0.03700
C718        C  0.77154452  0.68246710  0.82896924    -0.25100
H719        H  0.73458910  0.68141280  0.91690986     0.08800
H720        H  0.76311393  0.70233632  0.88069446     0.12400
H721        H  0.71339399  0.61269760  0.86122783     0.12300
H722        H  0.73216146  0.61289299  0.81276292     0.12100
H723        H  0.75985345  0.63585740  0.77580989     0.12600
H724        H  0.78265095  0.70181976  0.83334296     0.14600
C725        C  0.73800522  0.83527681  0.68991199    -0.05400
C726        C  0.71971222  0.81219869  0.68790482    -0.05400
C727        C  0.72683173  0.78638409  0.69978552    -0.23500
C728        C  0.75246908  0.78305571  0.71377569     0.18700
C729        C  0.77083216  0.80621269  0.71646340     0.15900
C730        C  0.76339719  0.83219322  0.70469847    -0.18600
C731        C  0.79657824  0.80280000  0.73036086    -0.20400
C732        C  0.80427387  0.77659095  0.74101226    -0.12900
C733        C  0.78632846  0.75344474  0.73800772     0.03700
C734        C  0.76030478  0.75684645  0.72463129    -0.25100
H735        H  0.69981770  0.81400581  0.67709834     0.08800
H736        H  0.71241948  0.76890158  0.69769979     0.12400
H737        H  0.77780428  0.84971534  0.70637137     0.12300
H738        H  0.81092401  0.82030864  0.73266315     0.12100
H739        H  0.82437202  0.77421480  0.75136467     0.12600
H740        H  0.74651044  0.73890016  0.72218030     0.14600
C741        C  0.77666049  0.22946784  0.79875659    -0.05400
C742        C  0.77770077  0.21148740  0.82205624    -0.05400
C743        C  0.76773543  0.22039284  0.84825900    -0.23500
C744        C  0.75654243  0.24746756  0.85153159     0.18700
C745        C  0.75555065  0.26573506  0.82815529     0.15900
C746        C  0.76568166  0.25664590  0.80192942    -0.18600
C747        C  0.74417285  0.29268991  0.83134078    -0.20400
C748        C  0.73343764  0.30134129  0.85731809    -0.12900
C749        C  0.73413035  0.28335271  0.88069902     0.03700
C750        C  0.74604386  0.25646219  0.87769028    -0.25100
H751        H  0.78632152  0.19053510  0.81990629     0.08800
H752        H  0.76867739  0.20610477  0.86589421     0.12400
H753        H  0.76483751  0.27050171  0.78391945     0.12300
H754        H  0.74336078  0.30699336  0.81370385     0.12100
H755        H  0.72472735  0.32226987  0.85911071     0.12600
H756        H  0.74654921  0.24230059  0.89544551     0.14600
C757        C  0.75468054  0.06509075  0.67756974    -0.05400
C758        C  0.78211703  0.06549592  0.68841230    -0.05400
C759        C  0.79302839  0.08981132  0.70056664    -0.23500
C760        C  0.77662674  0.11414318  0.70234441     0.18700
C761        C  0.74910173  0.11423331  0.69121716     0.15900
C762        C  0.73835264  0.08972015  0.67872019    -0.18600
C763        C  0.73280625  0.13876627  0.69307145    -0.20400
C764        C  0.74372238  0.16292038  0.70580719    -0.12900
C765        C  0.77097394  0.16277589  0.71700556     0.03700
C766        C  0.78727510  0.13831886  0.71525053    -0.25100
H767        H  0.79526357  0.04697479  0.68742375     0.08800
H768        H  0.81425256  0.08950731  0.70879913     0.12400
H769        H  0.71710021  0.08963766  0.67056315     0.12300
H770        H  0.71166448  0.13927292  0.68465939     0.12100
H771        H  0.73101693  0.18175266  0.70685674     0.12600
H772        H  0.80831546  0.13822252  0.72398999     0.14600
C773        C  0.94118788  0.26991890  0.68713088    -0.05400
C774        C  0.94446597  0.25445868  0.71212748    -0.05400
C775        C  0.92136918  0.24297452  0.72587555    -0.23500
C776        C  0.89438296  0.24672452  0.71504068     0.18700
C777        C  0.89052740  0.26256569  0.69021030     0.15900
C778        C  0.91396017  0.27415058  0.67642431    -0.18600
C779        C  0.86332215  0.26620667  0.67948832    -0.20400
C780        C  0.84032760  0.25404179  0.69311341    -0.12900
C781        C  0.84418881  0.23813137  0.71763340     0.03700
C782        C  0.87124599  0.23462697  0.72855493    -0.25100
H783        H  0.96493288  0.25116205  0.72135173     0.08800
H784        H  0.92465790  0.23104059  0.74495834     0.12400
H785        H  0.91099832  0.28592720  0.65721311     0.12300
H786        H  0.85986414  0.27824719  0.66051648     0.12100
H787        H  0.81948012  0.25684774  0.68446802     0.12600
H788        H  0.87422328  0.22213996  0.74734834     0.14600
C789        C  0.94042663  0.62296397  0.69801817    -0.05400
C790        C  0.94453661  0.63353820  0.72540494    -0.05400
C791        C  0.92295452  0.64722995  0.73977890    -0.23500
C792        C  0.89672259  0.65078187  0.72711533     0.18700
C793        C  0.89200032  0.63986339  0.69979431     0.15900
C794        C  0.91383900  0.62579204  0.68548517    -0.18600
C795        C  0.86564500  0.64365373  0.68718177    -0.20400
C796        C  0.84432584  0.65812862  0.70141669    -0.12900
C797        C  0.84898118  0.66901892  0.72848463     0.03700
C798        C  0.87521868  0.66524803  0.74125253    -0.25100
H799        H  0.96458712  0.63132172  0.73582945     0.08800
H800        H  0.92690643  0.65531110  0.76076768     0.12400
H801        H  0.91041812  0.61790258  0.66433657     0.12300
H802        H  0.86154649  0.63551209  0.66626144     0.12100
H803        H  0.82411153  0.66083205  0.69137888     0.12600
H804        H  0.87884589  0.67374863  0.76214731     0.14600
C805        C  0.32655917  0.67913329  0.79828081    -0.05400
C806        C  0.35285207  0.66615963  0.79507817    -0.05400
C807        C  0.36571821  0.65283092  0.81788012    -0.23500
C808        C  0.35245241  0.65232710  0.84424506     0.18700
C809        C  0.32613546  0.66574678  0.84759405     0.15900
C810        C  0.31341257  0.67910504  0.82464163    -0.18600
C811        C  0.31282866  0.66540642  0.87380631    -0.20400
C812        C  0.32538746  0.65195836  0.89658299    -0.12900
C813        C  0.35155204  0.63847116  0.89370924     0.03700
C814        C  0.36495202  0.63866908  0.86729767    -0.25100
H815        H  0.36316908  0.66601821  0.77477443     0.08800
H816        H  0.38591210  0.64274677  0.81484595     0.12400
H817        H  0.29314473  0.68922837  0.82709835     0.12300
H818        H  0.29261199  0.67549077  0.87670203     0.12100
H819        H  0.31428641  0.65191986  0.91642688     0.12600
H820        H  0.38518492  0.62854077  0.86472077     0.14600
C821        C  0.25361926  0.67356382  0.72246787    -0.05400
C822        C  0.25838660  0.64680175  0.71101442    -0.05400
C823        C  0.23668078  0.63220948  0.69770562    -0.23500
C824        C  0.20984196  0.64416977  0.69570689     0.18700
C825        C  0.20493876  0.67114741  0.70728309     0.15900
C826        C  0.22685598  0.68566979  0.72055718    -0.18600
C827        C  0.17814777  0.68306148  0.70554540    -0.20400
C828        C  0.15626870  0.66825925  0.69289620    -0.12900
C829        C  0.16072329  0.64127752  0.68156023     0.03700
C830        C  0.18775067  0.62950325  0.68269736    -0.25100
H831        H  0.27900936  0.63730076  0.71231882     0.08800
H832        H  0.24086668  0.61155263  0.68904012     0.12400
H833        H  0.22316361  0.70630122  0.72956562     0.12300
H834        H  0.17403640  0.70375583  0.71418517     0.12100
H835        H  0.13578238  0.67805079  0.69199600     0.12600
H836        H  0.19140889  0.60865574  0.67423558     0.14600
C837        C  0.37443519  0.83218697  0.67548699    -0.05400
C838        C  0.37945217  0.80718676  0.66044753    -0.05400
C839        C  0.36712925  0.78190887  0.66881134    -0.23500
C840        C  0.34954223  0.78107738  0.69243246     0.18700
C841        C  0.34429727  0.80602531  0.70773101     0.15900
C842        C  0.35672684  0.83131906  0.69920430    -0.18600
C843        C  0.32688127  0.80526011  0.73151493    -0.20400
C844        C  0.31516648  0.77991981  0.74032065    -0.12900
C845        C  0.32059007  0.75500497  0.72550979     0.03700
C846        C  0.33749354  0.75568202  0.70131827    -0.25100
H847        H  0.39278800  0.80704423  0.64202794     0.08800
H848        H  0.37141480  0.76301967  0.65684638     0.12400
H849        H  0.35273213  0.85014589  0.71128824     0.12300
H850        H  0.32264327  0.82413760  0.74349481     0.12100
H851        H  0.30226588  0.77957361  0.75910350     0.12600
H852        H  0.34187993  0.73637212  0.69006729     0.14600
C853        C  0.22362101  0.12403751  0.61751264    -0.05400
C854        C  0.20819861  0.12136053  0.64262345    -0.05400
C855        C  0.21841210  0.13234311  0.66796144    -0.23500
C856        C  0.24437546  0.14614196  0.66881690     0.18700
C857        C  0.26029351  0.14872493  0.64385485     0.15900
C858        C  0.24981793  0.13776856  0.61842380    -0.18600
C859        C  0.28646037  0.16223817  0.64474538    -0.20400
C860        C  0.29668302  0.17313522  0.67008905    -0.12900
C861        C  0.28087369  0.17092326  0.69488036     0.03700
C862        C  0.25469765  0.15739245  0.69417769    -0.25100
H863        H  0.18795547  0.11109438  0.64273987     0.08800
H864        H  0.20594884  0.13010895  0.68686989     0.12400
H865        H  0.26222060  0.13981280  0.59948519     0.12300
H866        H  0.29899540  0.16437265  0.62587976     0.12100
H867        H  0.31691118  0.18351028  0.67038627     0.12600
H868        H  0.24255778  0.15557975  0.71335544     0.14600
C869        C  0.25776513  0.22266595  0.71757273    -0.05400
C870        C  0.26269370  0.23575652  0.69161275    -0.05400
C871        C  0.24087459  0.24942110  0.67746790    -0.23500
C872        C  0.21383459  0.25024694  0.68918555     0.18700
C873        C  0.20892903  0.23715849  0.71542304     0.15900
C874        C  0.23084909  0.22338980  0.72935070    -0.18600
C875        C  0.18213009  0.23792993  0.72732984    -0.20400
C876        C  0.16017248  0.25109294  0.71324178    -0.12900
C877        C  0.16445803  0.26378060  0.68688315     0.03700
C878        C  0.19155498  0.26362547  0.67509499    -0.25100
H879        H  0.28348507  0.23541145  0.68238065     0.08800
H880        H  0.24512945  0.25929722  0.65741987     0.12400
H881        H  0.22707211  0.21318676  0.74936132     0.12300
H882        H  0.17808799  0.22821797  0.74751651     0.12100
H883        H  0.13975963  0.25133683  0.72321139     0.12600
H884        H  0.19516088  0.27326197  0.65479985     0.14600
C885        C  0.38500935  0.06318457  0.68660637    -0.05400
C886        C  0.40034999  0.08816044  0.68327137    -0.05400
C887        C  0.38921158  0.11385236  0.69197519    -0.23500
C888        C  0.36248522  0.11507659  0.70414933     0.18700
C889        C  0.34679262  0.09016260  0.70768923     0.15900
C890        C  0.35817035  0.06439575  0.69897372    -0.18600
C891        C  0.31996585  0.09146456  0.71986474    -0.20400
C892        C  0.30895678  0.11722058  0.72865572    -0.12900
C893        C  0.32463314  0.14187530  0.72541420     0.03700
C894        C  0.35127281  0.14079487  0.71299510    -0.25100
H895        H  0.42114002  0.08794889  0.67409861     0.08800
H896        H  0.40151405  0.13274408  0.68921072     0.12400
H897        H  0.34591941  0.04547500  0.70152389     0.12300
H898        H  0.30763741  0.07261579  0.72273524     0.12100
H899        H  0.28838697  0.11793489  0.73838278     0.12600
H900        H  0.36326659  0.15995070  0.71056260     0.14600
C901        C  0.36985193  0.24830678  0.89016114    -0.05400
C902        C  0.35533025  0.22280568  0.89377520    -0.05400
C903        C  0.34171684  0.20980590  0.87132024    -0.23500
C904        C  0.34233900  0.22185204  0.84458306     0.18700
C905        C  0.35705787  0.24726805  0.84033765     0.15900
C906        C  0.37077994  0.26031865  0.86312542    -0.18600
C907        C  0.35759600  0.25921081  0.81339174    -0.20400
C908        C  0.34371405  0.24608977  0.79101408    -0.12900
C909        C  0.32918014  0.22081646  0.79518294     0.03700
C910        C  0.32849035  0.20882470  0.82203898    -0.25100
H911        H  0.35433273  0.21259565  0.91400106     0.08800
H912        H  0.33064511  0.19028003  0.87491587     0.12400
H913        H  0.38179548  0.27990067  0.85980078     0.12300
H914        H  0.36874591  0.27865119  0.80962357     0.12100
H915        H  0.34447165  0.25549761  0.77031735     0.12600
H916        H  0.31717185  0.18936200  0.82527192     0.14600
C917        C  0.76916358  0.66939684  0.19700671    -0.05400
C918        C  0.75998713  0.64150455  0.19956695    -0.05400
C919        C  0.74372804  0.62908026  0.17839141    -0.23500
C920        C  0.73601196  0.64451705  0.15449226     0.18700
C921        C  0.74533582  0.67255267  0.15179480     0.15900
C922        C  0.76226068  0.68456940  0.17271354    -0.18600
C923        C  0.73724374  0.68832818  0.12841516    -0.20400
C924        C  0.72052642  0.67636371  0.10754697    -0.12900
C925        C  0.71168643  0.64822569  0.10936290     0.03700
C926        C  0.71923100  0.63248669  0.13323893    -0.25100
H927        H  0.76491313  0.62957308  0.21827936     0.08800
H928        H  0.73679332  0.60758689  0.18093562     0.12400
H929        H  0.76940166  0.70605956  0.17058541     0.12300
H930        H  0.74384794  0.70997586  0.12624299     0.12100
H931        H  0.71464677  0.68933289  0.08987396     0.12600
H932        H  0.71259555  0.61083135  0.13506210     0.14600
C933        C  0.85059880  0.67535509  0.26466510    -0.05400
C934        C  0.87543879  0.67869040  0.24918381    -0.05400
C935        C  0.90072045  0.66744252  0.25900324    -0.23500
C936        C  0.90150872  0.65260982  0.28447432     0.18700
C937        C  0.87653494  0.64899716  0.30009923     0.15900
C938        C  0.85125228  0.66053890  0.29017832    -0.18600
C939        C  0.87729388  0.63386770  0.32535133    -0.20400
C940        C  0.90263322  0.62277132  0.33528028    -0.12900
C941        C  0.92775845  0.62670047  0.32026144     0.03700
C942        C  0.92688755  0.64148063  0.29462901    -0.25100
H943        H  0.87516996  0.68996619  0.22942818     0.08800
H944        H  0.91961982  0.67033087  0.24670133     0.12400
H945        H  0.83200978  0.65775216  0.30200162     0.12300
H946        H  0.85833851  0.63079507  0.33753339     0.12100
H947        H  0.90258103  0.61160238  0.35507105     0.12600
H948        H  0.94587862  0.64435707  0.28249450     0.14600
C949        C  0.74243454  0.84096973  0.30793689    -0.05400
C950        C  0.76805816  0.84412710  0.29350237    -0.05400
C951        C  0.78152319  0.82108758  0.28124254    -0.23500
C952        C  0.76967674  0.79429077  0.28308334     0.18700
C953        C  0.74413762  0.79061204  0.29780804     0.15900
C954        C  0.73072794  0.81393345  0.31024854    -0.18600
C955        C  0.73233216  0.76369004  0.29957620    -0.20400
C956        C  0.74561676  0.74076567  0.28675503    -0.12900
C957        C  0.77084511  0.74434428  0.27191227     0.03700
C958        C  0.78285471  0.77117323  0.27023770    -0.25100
H959        H  0.77794526  0.86447127  0.29168878     0.08800
H960        H  0.80114397  0.82427351  0.27019919     0.12400
H961        H  0.71100884  0.81107600  0.32117180     0.12300
H962        H  0.71281265  0.76039107  0.31074053     0.12100
H963        H  0.73615618  0.72015493  0.28828182     0.12600
H964        H  0.80224109  0.77400501  0.25866610     0.14600
C965        C  0.75146477  0.17704940  0.21877059    -0.05400
C966        C  0.72698062  0.19292632  0.22284670    -0.05400
C967        C  0.70106437  0.18283237  0.21366476    -0.23500
C968        C  0.69927226  0.15669304  0.20018500     0.18700
C969        C  0.72392645  0.14071936  0.19561024     0.15900
C970        C  0.74992513  0.15098957  0.20502070    -0.18600
C971        C  0.72207310  0.11477615  0.18174174    -0.20400
C972        C  0.69605339  0.10470945  0.17256740    -0.12900
C973        C  0.67139906  0.12023563  0.17742152     0.03700
C974        C  0.67322378  0.14627178  0.19125020    -0.25100
H975        H  0.72798326  0.21307135  0.23340628     0.08800
H976        H  0.68240784  0.19541328  0.21721405     0.12400
H977        H  0.76891870  0.13882678  0.20177414     0.12300
H978        H  0.74073185  0.10225526  0.17802176     0.12100
H979        H  0.69516927  0.08452891  0.16209435     0.12600
H980        H  0.65441044  0.15863197  0.19477574     0.14600
C981        C  0.72936698  0.27650646  0.11287618    -0.05400
C982        C  0.72586695  0.29170348  0.13804808    -0.05400
C983        C  0.73753645  0.28201415  0.16322080    -0.23500
C984        C  0.75277006  0.25681777  0.16371967     0.18700
C985        C  0.75598972  0.24111385  0.13864139     0.15900
C986        C  0.74440360  0.25108105  0.11344742    -0.18600
C987        C  0.77074426  0.21562578  0.13912518    -0.20400
C988        C  0.78229379  0.20583858  0.16421943    -0.12900
C989        C  0.77960396  0.22150920  0.18906659     0.03700
C990        C  0.76480339  0.24700193  0.18882021    -0.25100
H991        H  0.71449873  0.31139337  0.13828139     0.08800
H992        H  0.73474286  0.29425292  0.18222031     0.12400
H993        H  0.74693980  0.23886765  0.09441667     0.12300
H994        H  0.77329240  0.20327645  0.12016732     0.12100
H995        H  0.79354432  0.18604946  0.16429423     0.12600
H996        H  0.76251951  0.25889190  0.20812332     0.14600
C997        C  0.72454122  0.06988308  0.30896874    -0.05400
C998        C  0.70797764  0.09418418  0.31185936    -0.05400
C999        C  0.71745899  0.12005045  0.30175915    -0.23500
C1000       C  0.74379013  0.12214723  0.28875617     0.18700
C1001       C  0.76067693  0.09786274  0.28586227     0.15900
C1002       C  0.75092062  0.07195765  0.29583977    -0.18600
C1003       C  0.78712288  0.09987123  0.27309571    -0.20400
C1004       C  0.79668252  0.12564675  0.26310822    -0.12900
C1005       C  0.78000376  0.14980693  0.26565784     0.03700
C1006       C  0.75356279  0.14804169  0.27860403    -0.25100
H1007       H  0.68750144  0.09319991  0.32167755     0.08800
H1008       H  0.70420596  0.13839955  0.30413491     0.12400
H1009       H  0.76411979  0.05355155  0.29372645     0.12300
H1010       H  0.80036996  0.08150940  0.27076100     0.12100
H1011       H  0.81709504  0.12677775  0.25311553     0.12600
H1012       H  0.74075589  0.16674717  0.28070094     0.14600
C1013       C  0.27336760  0.65121820  0.23173471    -0.05400
C1014       C  0.25811905  0.65566918  0.20689842    -0.05400
C1015       C  0.24537634  0.63317373  0.19295307    -0.23500
C1016       C  0.24777507  0.60584810  0.20361226     0.18700
C1017       C  0.26290113  0.60133177  0.22880574     0.15900
C1018       C  0.27550673  0.62404743  0.24275523    -0.18600
C1019       C  0.26542595  0.57412394  0.23945704    -0.20400
C1020       C  0.25342027  0.55150792  0.22518322    -0.12900
C1021       C  0.23858244  0.55551867  0.19986399     0.03700
C1022       C  0.23563604  0.58294942  0.18936570    -0.25100
H1023       H  0.25628678  0.67659407  0.19825511     0.08800
H1024       H  0.23385983  0.63711347  0.17370361     0.12400
H1025       H  0.28737643  0.62063496  0.26191948     0.12300
H1026       H  0.27684273  0.57027958  0.25879691     0.12100
H1027       H  0.25580627  0.53085156  0.23421147     0.12600
H1028       H  0.22440274  0.58649306  0.16988045     0.14600
C1029       C  0.36149297  0.62158106  0.12327644    -0.05400
C1030       C  0.36461437  0.60449382  0.14714810    -0.05400
C1031       C  0.35558726  0.61379967  0.17355633    -0.23500
C1032       C  0.34344120  0.64043644  0.17659239     0.18700
C1033       C  0.34050343  0.65791399  0.15276778     0.15900
C1034       C  0.34948719  0.64837192  0.12634171    -0.18600
C1035       C  0.32852650  0.68464196  0.15573067    -0.20400
C1036       C  0.31933311  0.69390174  0.18201174    -0.12900
C1037       C  0.32205845  0.67665561  0.20570205     0.03700
C1038       C  0.33416041  0.64993087  0.20297381    -0.25100
H1039       H  0.37362922  0.58370146  0.14538893     0.08800
H1040       H  0.35800565  0.60012209  0.19157230     0.12400
H1041       H  0.34729489  0.66195981  0.10823567     0.12300
H1042       H  0.32616061  0.69832620  0.13771250     0.12100
H1043       H  0.30993390  0.71453268  0.18393297     0.12600
H1044       H  0.33633455  0.63669695  0.22136799     0.14600
C1045       C  0.15627986  0.63645961  0.31204704    -0.05400
C1046       C  0.15341173  0.65065042  0.28628254    -0.05400
C1047       C  0.17655134  0.66305973  0.27329986    -0.23500
C1048       C  0.20309796  0.66158013  0.28579738     0.18700
C1049       C  0.20643211  0.64718933  0.31156016     0.15900
C1050       C  0.18303552  0.63464518  0.32448281    -0.18600
C1051       C  0.23310812  0.64572060  0.32399438    -0.20400
C1052       C  0.25620208  0.65828825  0.31095110    -0.12900
C1053       C  0.25297461  0.67261075  0.28540509     0.03700
C1054       C  0.22634637  0.67428222  0.27295141    -0.25100
H1055       H  0.13326140  0.65209296  0.27591531     0.08800
H1056       H  0.17365607  0.67385498  0.25349015     0.12400
H1057       H  0.18563099  0.62393859  0.34435554     0.12300
H1058       H  0.23611381  0.63482375  0.34371351     0.12100
H1059       H  0.27668813  0.65678018  0.32072054     0.12600
H1060       H  0.22383266  0.68548160  0.25330290     0.14600
C1061       C  0.38002426  0.82852161  0.32816148    -0.05400
C1062       C  0.39685338  0.80428004  0.33007064    -0.05400
C1063       C  0.38772270  0.77865619  0.31887649    -0.23500
C1064       C  0.36151385  0.77666815  0.30562871     0.18700
C1065       C  0.34449852  0.80091151  0.30340201     0.15900
C1066       C  0.35384499  0.82656666  0.31459314    -0.18600
C1067       C  0.31827123  0.79907335  0.29018478    -0.19800
C1068       C  0.30886290  0.77344877  0.27949508    -0.12900
C1069       C  0.32539726  0.74916767  0.28189691     0.03700
C1070       C  0.35186073  0.75088722  0.29482009    -0.25100
H1071       H  0.41722112  0.80505700  0.34007910     0.08800
H1072       H  0.40113822  0.76035022  0.32069635     0.12400
H1073       H  0.34042781  0.84487272  0.31304293     0.12300
H1074       H  0.30496307  0.81743934  0.28821912     0.12100
H1075       H  0.28850983  0.77246051  0.26940028     0.12600
H1076       H  0.36466284  0.73214221  0.29670598     0.14600
C1077       C  0.22812751  0.11883947  0.38501024    -0.05400
C1078       C  0.22487892  0.10257079  0.36049906    -0.05400
C1079       C  0.23690894  0.11104281  0.33503429    -0.23500
C1080       C  0.25222489  0.13611532  0.33352042     0.18700
C1081       C  0.25560348  0.15266716  0.35801693     0.15900
C1082       C  0.24369189  0.14387679  0.38357265    -0.18600
C1083       C  0.27071511  0.17786677  0.35654057    -0.20400
C1084       C  0.28234250  0.18659905  0.33104935    -0.12900
C1085       C  0.27901990  0.17041031  0.30658131     0.03700
C1086       C  0.26399147  0.14506831  0.30792180    -0.25100
H1087       H  0.21325887  0.08306759  0.36102828     0.08800
H1088       H  0.23414767  0.09804836  0.31653579     0.12400
H1089       H  0.24615985  0.15677931  0.40216493     0.12300
H1090       H  0.27345997  0.19084381  0.37504235     0.12100
H1091       H  0.29386889  0.20618232  0.33031431     0.12600
H1092       H  0.26120083  0.13265258  0.28902585     0.14600
C1093       C  0.34960405  0.16279885  0.22791679    -0.05400
C1094       C  0.34648698  0.15175438  0.20069923    -0.05400
C1095       C  0.36871994  0.13764263  0.18763383    -0.23500
C1096       C  0.39443469  0.13435872  0.20162410     0.18700
C1097       C  0.39763987  0.14534043  0.22910870     0.15900
C1098       C  0.37523861  0.15952242  0.24204161    -0.18600
C1099       C  0.42329463  0.14219179  0.24309287    -0.20400
C1100       C  0.44582220  0.12889399  0.22977637    -0.12900
C1101       C  0.44313957  0.11832333  0.20225266     0.03700
C1102       C  0.41712970  0.12072738  0.18845905    -0.25100
H1103       H  0.32675668  0.15404231  0.18962801     0.08800
H1104       H  0.36583886  0.12939632  0.16656662     0.12400
H1105       H  0.37771068  0.16820654  0.26300449     0.12300
H1106       H  0.42605295  0.15030326  0.26423610     0.12100
H1107       H  0.46543267  0.12698717  0.24108721     0.12600
H1108       H  0.41476166  0.11283209  0.16719431     0.14600
C1109       C  0.25237493  0.33295033  0.18171319    -0.05400
C1110       C  0.27950373  0.33597460  0.19304387    -0.05400
C1111       C  0.29262572  0.31372794  0.20682701    -0.23500
C1112       C  0.27884189  0.28799667  0.20974907     0.18700
C1113       C  0.25183333  0.28438929  0.19786149     0.15900
C1114       C  0.23886359  0.30683158  0.18368491    -0.18600
C1115       C  0.23811487  0.25854701  0.20083902    -0.20400
C1116       C  0.25100810  0.23655223  0.21535328    -0.12900
C1117       C  0.27776680  0.24003244  0.22724307     0.03700
C1118       C  0.29152964  0.26589391  0.22451604    -0.25100
H1119       H  0.29059003  0.35571904  0.19144923     0.08800
H1120       H  0.31343749  0.31679430  0.21555693     0.12400
H1121       H  0.21789273  0.30428480  0.17515122     0.12300
H1122       H  0.21740338  0.25533469  0.19193292     0.12100
H1123       H  0.24020348  0.21666300  0.21720367     0.12600
H1124       H  0.31214389  0.26867655  0.23381656     0.14600
C1125       C  0.36091977  0.26053808  0.11358505    -0.05400
C1126       C  0.33376986  0.24963492  0.10957547    -0.05400
C1127       C  0.31935935  0.23670868  0.13157604    -0.23500
C1128       C  0.33191462  0.23402230  0.15802909     0.18700
C1129       C  0.35889544  0.24558018  0.16266844     0.15900
C1130       C  0.37309743  0.25913056  0.14048709    -0.18600
C1131       C  0.37140338  0.24271062  0.18921652    -0.20400
C1132       C  0.35745561  0.22843924  0.21079814    -0.12900
C1133       C  0.33072288  0.21683917  0.20629861     0.03700
C1134       C  0.31807627  0.21968373  0.17979258    -0.25100
H1135       H  0.32370556  0.25085836  0.08921718     0.08800
H1136       H  0.29856795  0.22826736  0.12770538     0.12400
H1137       H  0.39404953  0.26741903  0.14381318     0.12300
H1138       H  0.39204303  0.25141559  0.19327199     0.12100
H1139       H  0.36737012  0.22667187  0.23119858     0.12600
H1140       H  0.29741112  0.21078543  0.17623215     0.14600
C1141       C  0.32345642  0.13907775  0.27783058    -0.05400
C1142       C  0.31842507  0.11398057  0.26316434    -0.05400
C1143       C  0.32816196  0.08834186  0.27365423    -0.23500
C1144       C  0.34326834  0.08738311  0.29897823     0.18700
C1145       C  0.34847552  0.11258047  0.31385888     0.15900
C1146       C  0.33843957  0.13826022  0.30326654    -0.18600
C1147       C  0.36379812  0.11166929  0.33899026    -0.20400
C1148       C  0.37403174  0.08612224  0.34922582    -0.12900
C1149       C  0.36906047  0.06083668  0.33469043     0.03700
C1150       C  0.35343226  0.06170609  0.30953570    -0.25100
H1151       H  0.30689088  0.11430284  0.24353800     0.08800
H1152       H  0.32398306  0.06929808  0.26190908     0.12400
H1153       H  0.34247080  0.15762924  0.31454567     0.12300
H1154       H  0.36796577  0.13073852  0.35070582     0.12100
H1155       H  0.38569850  0.08624190  0.36874169     0.12600
H1156       H  0.34955025  0.04255773  0.29787556     0.14600
C1157       C  0.85509206  0.22315338  0.26321527    -0.05400
C1158       C  0.87997037  0.21947472  0.24780808    -0.05400
C1159       C  0.90539719  0.22996046  0.25792861    -0.23500
C1160       C  0.90640827  0.24407439  0.28383365     0.18700
C1161       C  0.88148016  0.24792067  0.29952026     0.15900
C1162       C  0.85590906  0.23757417  0.28903785    -0.18600
C1163       C  0.88261905  0.26195127  0.32545608    -0.20400
C1164       C  0.90822540  0.27198362  0.33580974    -0.12900
C1165       C  0.93321068  0.26820132  0.32045488     0.03700
C1166       C  0.93200097  0.25425229  0.29432654    -0.25100
H1167       H  0.87965474  0.20835967  0.22789656     0.08800
H1168       H  0.92427454  0.22684854  0.24561669     0.12400
H1169       H  0.83669856  0.24059947  0.30087360     0.12300
H1170       H  0.86375210  0.26503477  0.33780139     0.12100
H1171       H  0.90842095  0.28243906  0.35604203     0.12600
H1172       H  0.95086287  0.25137039  0.28197950     0.14600
C1173       C  0.16120284  0.25267118  0.31813961    -0.05400
C1174       C  0.15773866  0.22504918  0.30818700    -0.05400
C1175       C  0.18035692  0.21009511  0.29695465    -0.23500
C1176       C  0.20689373  0.22253296  0.29515421     0.18700
C1177       C  0.21082519  0.25016964  0.30540324     0.15900
C1178       C  0.18800744  0.26496966  0.31708169    -0.18600
C1179       C  0.23741213  0.26263270  0.30334710    -0.20400
C1180       C  0.25975166  0.24798013  0.29106579    -0.12900
C1181       C  0.25591069  0.22063104  0.28067892     0.03700
C1182       C  0.22944940  0.20794392  0.28292253    -0.25100
H1183       H  0.13746704  0.21487111  0.30913915     0.08800
H1184       H  0.17699782  0.18887603  0.28936797     0.12400
H1185       H  0.19093782  0.28629404  0.32456080     0.12300
H1186       H  0.24088142  0.28378795  0.31104800     0.12100
H1187       H  0.28010038  0.25797022  0.28956256     0.12600
H1188       H  0.22641654  0.18687394  0.27476123     0.14600
C1189       C  0.43956491  0.78045219  0.79470790    -0.05400
C1190       C  0.44221481  0.76739918  0.76824294    -0.05400
C1191       C  0.42002797  0.75219304  0.75665448    -0.23500
C1192       C  0.39466837  0.74970838  0.77129519     0.18700
C1193       C  0.39134071  0.76334525  0.79754700     0.15900
C1194       C  0.41375340  0.77877617  0.80903223    -0.18600
C1195       C  0.36576844  0.76095280  0.81203388    -0.20400
C1196       C  0.34377339  0.74521957  0.80058191    -0.12900
C1197       C  0.34704041  0.73161298  0.77458438     0.03700
C1198       C  0.37259310  0.73379367  0.76008263    -0.25100
H1199       H  0.46159004  0.76871057  0.75641318     0.08800
H1200       H  0.42281009  0.74215454  0.73639303     0.12400
H1201       H  0.41133058  0.78863917  0.82940660     0.12300
H1202       H  0.36275719  0.77130062  0.83209755     0.12100
H1203       H  0.32399336  0.74398446  0.81177875     0.12600
H1204       H  0.37505959  0.72335430  0.73996739     0.14600
C1205       C  0.66088103  0.75829055  0.81862510    -0.05400
C1206       C  0.65694070  0.73283890  0.80410351    -0.05400
C1207       C  0.67968027  0.71844853  0.79245758    -0.23500
C1208       C  0.70683833  0.72932660  0.79488961     0.18700
C1209       C  0.71126826  0.75452027  0.81008232     0.15900
C1210       C  0.68826380  0.76871635  0.82212167    -0.18600
C1211       C  0.73855110  0.76535053  0.81237660    -0.20400
C1212       C  0.76110431  0.75152074  0.79952460    -0.12900
C1213       C  0.75674472  0.72668574  0.78416619     0.03700
C1214       C  0.72955609  0.71563722  0.78200865    -0.25100
H1215       H  0.63614303  0.72407685  0.80152637     0.08800
H1216       H  0.67594615  0.69903660  0.78111759     0.12400
H1217       H  0.69155249  0.78836189  0.83319642     0.12300
H1218       H  0.74241617  0.78460322  0.82393084     0.12100
H1219       H  0.78202547  0.76016493  0.80151234     0.12600
H1220       H  0.72615544  0.69649923  0.77007762     0.14600
C1221       C  0.23601881  0.33765313  0.80046592    -0.05400
C1222       C  0.24816344  0.34111557  0.77366704    -0.05400
C1223       C  0.26146955  0.31879371  0.76004676    -0.23500
C1224       C  0.26287333  0.29244333  0.77282612     0.18700
C1225       C  0.25038615  0.28846309  0.79954108     0.15900
C1226       C  0.23702147  0.31105794  0.81316254    -0.18600
C1227       C  0.25164861  0.26197226  0.81221210    -0.20400
C1228       C  0.26505274  0.23969749  0.79854570    -0.12900
C1229       C  0.27762865  0.24356051  0.77210991     0.03700
C1230       C  0.27656749  0.27002894  0.75936360    -0.25100
H1231       H  0.24740597  0.36111130  0.76301235     0.08800
H1232       H  0.27072934  0.32218680  0.73948354     0.12400
H1233       H  0.22788256  0.30799356  0.83382210     0.12300
H1234       H  0.24220283  0.25845241  0.83266209     0.12100
H1235       H  0.26560206  0.21931616  0.80855106     0.12600
H1236       H  0.28641031  0.27308379  0.73900900     0.14600
C1237       C  0.24615673  0.56035294  0.81676073    -0.05400
C1238       C  0.27308029  0.55700056  0.80501647    -0.05400
C1239       C  0.28704022  0.57961305  0.79275195    -0.23500
C1240       C  0.27422808  0.60602459  0.79158829     0.18700
C1241       C  0.24726609  0.60983609  0.80359659     0.15900
C1242       C  0.23353325  0.58703459  0.81644068    -0.18600
C1243       C  0.23433862  0.63625079  0.80199538    -0.20400
C1244       C  0.24785215  0.65851491  0.78849340    -0.12900
C1245       C  0.27455678  0.65482543  0.77648634     0.03700
C1246       C  0.28772786  0.62854737  0.77822074    -0.25100
H1247       H  0.28341251  0.53675981  0.80527368     0.08800
H1248       H  0.30773009  0.57631241  0.78377056     0.12400
H1249       H  0.21268209  0.58979729  0.82523524     0.12300
H1250       H  0.21366775  0.63963200  0.81096575     0.12100
H1251       H  0.23747506  0.67871436  0.78732480     0.12600
H1252       H  0.30828555  0.62562107  0.76879312     0.14600
C1253       C  0.67202225  0.12642237  0.81611205    -0.05400
C1254       C  0.69710343  0.11085445  0.81715532    -0.05400
C1255       C  0.72188005  0.12144770  0.80536648    -0.23500
C1256       C  0.72210784  0.14793700  0.79252959     0.18700
C1257       C  0.69705941  0.16384844  0.79154530     0.15900
C1258       C  0.67228761  0.15298413  0.80319186    -0.18600
C1259       C  0.69719316  0.19049197  0.77906840    -0.20400
C1260       C  0.72194324  0.20136956  0.76779142    -0.12900
C1261       C  0.74688160  0.18573801  0.76858089     0.03700
C1262       C  0.74690258  0.15892789  0.78084653    -0.25100
H1263       H  0.69754242  0.09029368  0.82677604     0.08800
H1264       H  0.74086507  0.10894429  0.80633658     0.12400
H1265       H  0.65331933  0.16551666  0.80247864     0.12300
H1266       H  0.67818141  0.20297525  0.77815015     0.12100
H1267       H  0.72170278  0.22203005  0.75834227     0.12600
H1268       H  0.76622564  0.14690324  0.78149738     0.14600
C1269       C  0.44506033  0.13697782  0.81191267    -0.05400
C1270       C  0.44862437  0.16275820  0.79794711    -0.05400
C1271       C  0.42593318  0.17648923  0.78557159    -0.23500
C1272       C  0.39906268  0.16480790  0.78684903     0.18700
C1273       C  0.39490153  0.13911008  0.80107607     0.15900
C1274       C  0.41791675  0.12535924  0.81359075    -0.18600
C1275       C  0.36781698  0.12756632  0.80229775    -0.20400
C1276       C  0.34524841  0.14127883  0.78938826    -0.12900
C1277       C  0.34940623  0.16666252  0.77504876     0.03700
C1278       C  0.37635026  0.17837457  0.77392730    -0.25100
H1279       H  0.46899773  0.17264194  0.79660441     0.08800
H1280       H  0.42944550  0.19623641  0.77491678     0.12400
H1281       H  0.41471876  0.10554317  0.82417770     0.12300
H1282       H  0.36412305  0.10794386  0.81309891     0.12100
H1283       H  0.32449457  0.13206581  0.79046666     0.12600
H1284       H  0.37957356  0.19790155  0.76275701     0.14600
C1285       C  0.87370845  0.56839112  0.83191430    -0.05400
C1286       C  0.87695399  0.59330014  0.84748934    -0.05400
C1287       C  0.86469180  0.61834238  0.83829289    -0.23500
C1288       C  0.84916230  0.61895234  0.81325483     0.18700
C1289       C  0.84562839  0.59399251  0.79752886     0.15900
C1290       C  0.85777880  0.56896958  0.80700497    -0.18600
C1291       C  0.83037550  0.59453798  0.77230827    -0.20400
C1292       C  0.81916338  0.61971405  0.76244115    -0.12900
C1293       C  0.82284584  0.64459264  0.77777471     0.03700
C1294       C  0.83753469  0.64411390  0.80334795    -0.25100
H1295       H  0.88883751  0.59345119  0.86686764     0.08800
H1296       H  0.86756081  0.63728931  0.85064619     0.12400
H1297       H  0.85525755  0.55009373  0.79450076     0.12300
H1298       H  0.82745135  0.57555752  0.76001879     0.12100
H1299       H  0.80781380  0.61992623  0.74272131     0.12600
H1300       H  0.84041397  0.66346554  0.81508112     0.14600
C1301       C  0.82690060  0.25440308  0.77452415    -0.05400
C1302       C  0.83996864  0.24780624  0.80017184    -0.05400
C1303       C  0.85438969  0.26840530  0.81543631    -0.23500
C1304       C  0.85624850  0.29591709  0.80514894     0.18700
C1305       C  0.84353476  0.30249290  0.77908237     0.15900
C1306       C  0.82882543  0.28181846  0.76409267    -0.18600
C1307       C  0.84553060  0.32972952  0.76848332    -0.20400
C1308       C  0.85935251  0.35051484  0.78377397    -0.12900
C1309       C  0.87148661  0.34465756  0.81013718     0.03700
C1310       C  0.87024224  0.31704619  0.82051782    -0.25100
H1311       H  0.83887500  0.22666867  0.80839906     0.08800
H1312       H  0.86403120  0.26282820  0.83530287     0.12400
H1313       H  0.81865929  0.28703676  0.74436652     0.12300
H1314       H  0.83620659  0.33505412  0.74838155     0.12100
H1315       H  0.86047321  0.37128677  0.77475631     0.12600
H1316       H  0.87950179  0.31215905  0.84075485     0.14600
C1317       C  0.87699396  0.33839187  0.18610082    -0.05400
C1318       C  0.86701293  0.34089947  0.21387174    -0.05400
C1319       C  0.85306457  0.31880386  0.22687534    -0.23500
C1320       C  0.84895221  0.29353681  0.21250976     0.18700
C1321       C  0.85958461  0.29019910  0.18491394     0.15900
C1322       C  0.87357594  0.31269804  0.17180494    -0.18600
C1323       C  0.85589945  0.26444297  0.17098552    -0.20400
C1324       C  0.84201301  0.24230505  0.18439633    -0.12900
C1325       C  0.83109822  0.24574803  0.21165496     0.03700
C1326       C  0.83444650  0.27154092  0.22546687    -0.25100
H1327       H  0.86990799  0.36003864  0.22579389     0.08800
H1328       H  0.84544060  0.32152526  0.24816859     0.12400
H1329       H  0.88121563  0.31038361  0.15048531     0.12300
H1330       H  0.86397586  0.26133810  0.14992882     0.12100
H1331       H  0.84001678  0.22235520  0.17361071     0.12600
H1332       H  0.82602265  0.27428354  0.24646368     0.14600
C1333       C  0.82472424  0.65001878  0.21540689    -0.05400
C1334       C  0.83380856  0.65308376  0.18746821    -0.05400
C1335       C  0.84918358  0.63172489  0.17422789    -0.23500
C1336       C  0.85602803  0.60708656  0.18884015     0.18700
C1337       C  0.84680529  0.60389310  0.21694258     0.15900
C1338       C  0.83086491  0.62509795  0.22981174    -0.18600
C1339       C  0.85382595  0.57960970  0.23181826    -0.20400
C1340       C  0.86923471  0.55830325  0.21885153    -0.12900
C1341       C  0.87797121  0.56073282  0.19066795     0.03700
C1342       C  0.87167968  0.58550022  0.17588356    -0.25100
H1343       H  0.82936916  0.67223692  0.17610128     0.08800
H1344       H  0.85601062  0.63462415  0.15266458     0.12400
H1345       H  0.82364308  0.62252099  0.25130818     0.12300
H1346       H  0.84724690  0.57699706  0.25351095     0.12100
H1347       H  0.87419743  0.53977848  0.23098093     0.12600
H1348       H  0.87823488  0.58765489  0.15413952     0.14600
C1349       C  0.74337137  0.71751507  0.22444438    -0.05400
C1350       C  0.71925937  0.70081211  0.22695332    -0.05400
C1351       C  0.69347742  0.71016375  0.21652691    -0.23500
C1352       C  0.69137185  0.73649984  0.20355318     0.18700
C1353       C  0.71552457  0.75351999  0.20103954     0.15900
C1354       C  0.74138226  0.74394223  0.21153313    -0.18600
C1355       C  0.71340940  0.77976725  0.18795491    -0.20400
C1356       C  0.68759401  0.78911914  0.17753243    -0.12900
C1357       C  0.66334325  0.77248337  0.18005640     0.03700
C1358       C  0.66549757  0.74606782  0.19309019    -0.25100
H1359       H  0.72051460  0.68038341  0.23683258     0.08800
H1360       H  0.67522862  0.69681810  0.21858704     0.12400
H1361       H  0.76001994  0.75675856  0.20939006     0.12300
H1362       H  0.73167801  0.79308805  0.18584887     0.12100
H1363       H  0.68662993  0.80961431  0.16781503     0.12600
H1364       H  0.64717977  0.73280709  0.19493448     0.14600
C1365       C  0.35296572  0.71965971  0.23493906    -0.05400
C1366       C  0.37689442  0.70263506  0.23738038    -0.05400
C1367       C  0.40224793  0.71069387  0.22508096    -0.23500
C1368       C  0.40397500  0.73585570  0.20996026     0.18700
C1369       C  0.37989142  0.75308742  0.20739815     0.15900
C1370       C  0.35454978  0.74495977  0.22006239    -0.18600
C1371       C  0.38150727  0.77799619  0.19194968    -0.20400
C1372       C  0.40670794  0.78585940  0.17919968    -0.12900
C1373       C  0.43089270  0.76907645  0.18177518     0.03700
C1374       C  0.42930585  0.74400307  0.19724300    -0.25100
H1375       H  0.37578167  0.68292307  0.24862309     0.08800
H1376       H  0.42041952  0.69714426  0.22718479     0.12400
H1377       H  0.33592263  0.75789550  0.21789813     0.12300
H1378       H  0.36326639  0.79144101  0.18973480     0.12100
H1379       H  0.40728109  0.80540425  0.16769728     0.12600
H1380       H  0.44765331  0.73066740  0.19919242     0.14600
C1381       C  0.82487219  0.72347937  0.29153249    -0.05400
C1382       C  0.84956079  0.73903124  0.28757957    -0.05400
C1383       C  0.86321281  0.75143069  0.31050877    -0.23500
C1384       C  0.85239760  0.74836125  0.33779967     0.18700
C1385       C  0.82751773  0.73269809  0.34184535     0.15900
C1386       C  0.81387965  0.72043135  0.31871243    -0.18600
C1387       C  0.81671799  0.72944324  0.36899113    -0.20400
C1388       C  0.83039266  0.74150301  0.39197488    -0.12900
C1389       C  0.85523114  0.75715712  0.38845074     0.03700
C1390       C  0.86606646  0.76054969  0.36109301    -0.25100
H1391       H  0.85823787  0.74153148  0.26666874     0.08800
H1392       H  0.88223077  0.76331028  0.30691787     0.12400
H1393       H  0.79489890  0.70829868  0.32176971     0.12300
H1394       H  0.79766873  0.71756599  0.37247508     0.12100
H1395       H  0.82113454  0.73862631  0.41253254     0.12600
H1396       H  0.88517957  0.77236599  0.35788375     0.14600
C1397       C  0.85713351  0.76368866  0.61425179    -0.05400
C1398       C  0.82901081  0.75483125  0.61281132    -0.05400
C1399       C  0.81575638  0.74320522  0.63615725    -0.23500
C1400       C  0.83039834  0.74002928  0.66142281     0.18700
C1401       C  0.85862048  0.74908022  0.66337037     0.15900
C1402       C  0.87177546  0.76108569  0.63979167    -0.18600
C1403       C  0.87320478  0.74562447  0.68877539    -0.20400
C1404       C  0.85993137  0.73333018  0.71192266    -0.12900
C1405       C  0.83194052  0.72436715  0.70998158     0.03700
C1406       C  0.81728343  0.72775417  0.68469688    -0.25100
H1407       H  0.81708220  0.75696513  0.59357033     0.08800
H1408       H  0.79409349  0.73651005  0.63437579     0.12400
H1409       H  0.89350241  0.76767518  0.64110902     0.12300
H1410       H  0.89483807  0.75234341  0.69070971     0.12100
H1411       H  0.87142564  0.73082361  0.73140216     0.12600
H1412       H  0.79571617  0.72064028  0.68320007     0.14600
C1413       C  0.86939411  0.14183159  0.61120211    -0.05400
C1414       C  0.88604656  0.13939297  0.63547726    -0.05400
C1415       C  0.87752054  0.15158166  0.66085809    -0.23500
C1416       C  0.85200675  0.16617652  0.66250859     0.18700
C1417       C  0.83510146  0.16885879  0.63822782     0.15900
C1418       C  0.84398979  0.15685732  0.61271626    -0.18600
C1419       C  0.80937189  0.18314030  0.63997486    -0.20400
C1420       C  0.80030778  0.19430128  0.66563570    -0.12900
C1421       C  0.81687058  0.19150188  0.68984957     0.03700
C1422       C  0.84285952  0.17766711  0.68813549    -0.25100
H1423       H  0.90584890  0.12822840  0.63484044     0.08800
H1424       H  0.89075269  0.14938347  0.67923052     0.12400
H1425       H  0.83081254  0.15868669  0.59427108     0.12300
H1426       H  0.79612846  0.18535796  0.62161828     0.12100
H1427       H  0.78018730  0.20487814  0.66674732     0.12600
H1428       H  0.85550093  0.17526819  0.70691140     0.14600
C1429       C  0.82406715  0.18021522  0.29448164    -0.05400
C1430       C  0.80627990  0.18394522  0.31774972    -0.05400
C1431       C  0.81445340  0.17494048  0.34443550    -0.23500
C1432       C  0.84061315  0.16200083  0.34827762     0.18700
C1433       C  0.85877605  0.15836125  0.32498325     0.15900
C1434       C  0.85038679  0.16747956  0.29820116    -0.18600
C1435       C  0.88483264  0.14526129  0.32881818    -0.20400
C1436       C  0.89253234  0.13519853  0.35529525    -0.12900
C1437       C  0.87448838  0.13831299  0.37851673     0.03700
C1438       C  0.84867948  0.15218836  0.37491598    -0.25100
H1439       H  0.78593535  0.19380947  0.31515345     0.08800
H1440       H  0.80025376  0.17789635  0.36199009     0.12400
H1441       H  0.86405326  0.16440723  0.28022199     0.12300
H1442       H  0.89909990  0.14246775  0.31128090     0.12100
H1443       H  0.91270844  0.12496926  0.35757673     0.12600
H1444       H  0.83450973  0.15459493  0.39258200     0.14600
C1445       C  0.27637712  0.72386393  0.69686854    -0.05400
C1446       C  0.28167756  0.70891545  0.67198893    -0.05400
C1447       C  0.27033503  0.71791662  0.64648648    -0.23500
C1448       C  0.25343976  0.74203920  0.64554362     0.18700
C1449       C  0.24806493  0.75728226  0.67052358     0.15900
C1450       C  0.25964998  0.74814049  0.69608355    -0.18600
C1451       C  0.23104347  0.78128013  0.66951293    -0.20400
C1452       C  0.21938864  0.79005337  0.64400341    -0.12900
C1453       C  0.22456373  0.77507230  0.61897617     0.03700
C1454       C  0.24173521  0.75101702  0.62001503    -0.25100
H1455       H  0.29456492  0.69015062  0.67239842     0.08800
H1456       H  0.27465920  0.70598779  0.62758614     0.12400
H1457       H  0.25547173  0.75956611  0.71534642     0.12300
H1458       H  0.22671992  0.79322774  0.68841258     0.12100
H1459       H  0.20647298  0.80875431  0.64396524     0.12600
H1460       H  0.24580474  0.73900502  0.60114375     0.14600
C1461       C  0.22025318  0.76637987  0.38697583    -0.05400
C1462       C  0.20642914  0.77151996  0.36134034    -0.05400
C1463       C  0.21760183  0.76173705  0.33597177    -0.23500
C1464       C  0.24285624  0.74667398  0.33570744     0.18700
C1465       C  0.25714607  0.74162179  0.36125548     0.15900
C1466       C  0.24573738  0.75140706  0.38665326    -0.18600
C1467       C  0.28261954  0.72681148  0.36098569    -0.20400
C1468       C  0.29369683  0.71689601  0.33565050    -0.12900
C1469       C  0.27933233  0.72141497  0.31035840     0.03700
C1470       C  0.25399280  0.73640816  0.31038818    -0.25100
H1471       H  0.18676109  0.78286017  0.36076389     0.08800
H1472       H  0.20641691  0.76585529  0.31657311     0.12400
H1473       H  0.25691850  0.74745851  0.40605370     0.12300
H1474       H  0.29388780  0.72279888  0.38035250     0.12100
H1475       H  0.31326173  0.70528384  0.33575011     0.12600
H1476       H  0.24302384  0.73990399  0.29072640     0.14600
loop_ 
_geom_bond_atom_site_label_1 
_geom_bond_atom_site_label_2 
_geom_bond_distance 
_geom_bond_site_symmetry_2 
_ccdc_geom_bond_type 
N1            N2   1.320       .  A
N1            C5   1.344       .  A
N1           Cu9   2.075       .  S
N2            C3   1.343       .  A
N2           Cu8   2.065       .  S
C3            C4   1.387       .  A
C3            H6   1.081       .  S
C4            C5   1.389       .  A
C4         C1461   1.485       .  S
C5            H7   1.081       .  S
Cu8          N11   2.065       .  S
Cu9          N19   2.075       .  S
Cu10         N12   2.074       .  S
Cu10         N18   2.075       .  S
N11          N12   1.322       .  A
N11          C15   1.344       .  A
N12          C13   1.344       .  A
C13          C14   1.382       .  A
C13          H16   1.081       .  S
C14          C15   1.381       .  A
C14         C635   1.466       .  S
C15          H17   1.082       .  S
N18          N19   1.321       .  A
N18          C22   1.346       .  A
N19          C20   1.344       .  A
C20          C21   1.388       .  A
C20          H23   1.081       .  S
C21          C22   1.389       .  A
C21        C1453   1.487       .  S
C22          H24   1.081       .  S
N25          N26   1.322       .  A
N25          C29   1.347       .  A
N25         Cu33   2.079       .  S
N26          C27   1.344       .  A
N26         Cu32   2.072       .  S
C27          C28   1.385       .  A
C27          H30   1.082       .  S
C28          C29   1.388       .  A
C28        C1437   1.482       .  S
C29          H31   1.081       .  S
Cu32         N35   2.072       .  S
Cu33         N43   2.079       .  S
Cu34         N36   2.075       .  S
Cu34         N42   2.075       .  S
N35          N36   1.322       .  A
N35          C39   1.345       .  A
N36          C37   1.346       .  A
C37          C38   1.384       .  A
C37          H40   1.082       .  S
C38          C39   1.383       .  A
C38         C636   1.469   1_545  S
C39          H41   1.082       .  S
N42          N43   1.322       .  A
N42          C46   1.345       .  A
N43          C44   1.345       .  A
C44          C45   1.386       .  A
C44          H47   1.081       .  S
C45          C46   1.386       .  A
C45        C1413   1.482       .  S
C46          H48   1.081       .  S
N49          N50   1.319       .  A
N49          C53   1.339       .  A
N49         Cu57   2.053       .  S
N50          C51   1.351       .  A
N50         Cu56   2.096       .  S
C51          C52   1.396       .  A
C51          H54   1.082       .  S
C52          C53   1.385       .  A
C52        C1389   1.491       .  S
C53          H55   1.081       .  S
Cu56         N59   2.099       .  S
Cu57         N67   2.053       .  S
Cu58         N60   2.086       .  S
Cu58         N66   2.083       .  S
N59          N60   1.327       .  A
N59          C63   1.348       .  A
N60          C61   1.346       .  A
C61          C62   1.382       .  A
C61          H64   1.082       .  S
C62          C63   1.385       .  A
C62         C638   1.474   1_655  S
C63          H65   1.082       .  S
N66          N67   1.319       .  A
N66          C70   1.350       .  A
N67          C68   1.339       .  A
C68          C69   1.382       .  A
C68          H71   1.082       .  S
C69          C70   1.391       .  A
C69        C1397   1.481       .  S
C70          H72   1.082       .  S
N73          N74   1.322       .  A
N73          C77   1.346       .  A
N73         Cu81   2.080       .  S
N74          C75   1.343       .  A
N74         Cu80   2.074       .  S
C75          C76   1.386       .  A
C75          H78   1.082       .  S
C76          C77   1.388       .  A
C76        C1373   1.484       .  S
C77          H79   1.082       .  S
Cu80         N83   2.074       .  S
Cu81         N91   2.080       .  S
Cu82         N84   2.074       .  S
Cu82         N90   2.075       .  S
N83          N84   1.322       .  A
N83          C87   1.348       .  A
N84          C85   1.344       .  A
C85          C86   1.383       .  A
C85          H88   1.082       .  S
C86          C87   1.384       .  A
C86         C652   1.471       .  S
C87          H89   1.082       .  S
N90          N91   1.321       .  A
N90          C94   1.345       .  A
N91          C92   1.346       .  A
C92          C93   1.389       .  A
C92          H95   1.081       .  S
C93          C94   1.388       .  A
C93        C1357   1.487       .  S
C94          H96   1.081       .  S
N97          N98   1.319       .  A
N97         C101   1.338       .  A
N97        Cu105   2.047       .  S
N98          C99   1.353       .  A
N98        Cu104   2.099       .  S
C99         C100   1.395       .  A
C99         H102   1.082       .  S
C100        C101   1.381       .  A
C100       C1341   1.485       .  S
C101        H103   1.082       .  S
Cu104       N107   2.103       .  S
Cu105       N115   2.047       .  S
Cu106       N108   2.088       .  S
Cu106       N114   2.084       .  S
N107        N108   1.328       .  A
N107        C111   1.349       .  A
N108        C109   1.346       .  A
C109        C110   1.381       .  A
C109        H112   1.082       .  S
C110        C111   1.386       .  A
C110        C663   1.475   1_655  S
C111        H113   1.082       .  S
N114        N115   1.318       .  A
N114        C118   1.352       .  A
N115        C116   1.337       .  A
C116        C117   1.382       .  A
C116        H119   1.081       .  S
C117        C118   1.394       .  A
C117       C1317   1.485       .  S
C118        H120   1.082       .  S
N121        N122   1.318       .  A
N121        C125   1.340       .  A
N121       Cu129   2.047       .  S
N122        C123   1.348       .  A
N122       Cu128   2.079       .  S
C123        C124   1.392       .  A
C123        H126   1.082       .  S
C124        C125   1.384       .  A
C124       C1285   1.483       .  S
C125        H127   1.081       .  S
Cu128       N131   2.082       .  S
Cu129       N139   2.047       .  S
Cu130       N132   2.112       .  S
Cu130       N138   2.109       .  S
N131        N132   1.327       .  A
N131        C135   1.345       .  A
N132        C133   1.351       .  A
C133        C134   1.389       .  A
C133        H136   1.082       .  S
C134        C135   1.381       .  A
C134        C666   1.479   1_655  S
C135        H137   1.082       .  S
N138        N139   1.321       .  A
N138        C142   1.354       .  A
N139        C140   1.337       .  A
C140        C141   1.381       .  A
C140        H143   1.082       .  S
C141        C142   1.396       .  A
C141       C1309   1.488       .  S
C142        H144   1.082       .  S
N145        N146   1.320       .  A
N145        C149   1.340       .  A
N145       Cu153   2.061       .  S
N146        C147   1.350       .  A
N146       Cu152   2.087       .  S
C147        C148   1.393       .  A
C147        H150   1.081       .  S
C148        C149   1.386       .  A
C148       C1269   1.489       .  S
C149        H151   1.081       .  S
Cu152       N155   2.088       .  S
Cu153       N163   2.061       .  S
Cu154       N156   2.092       .  S
Cu154       N162   2.090       .  S
N155        N156   1.326       .  A
N155        C159   1.347       .  A
N156        C157   1.347       .  A
C157        C158   1.384       .  A
C157        H160   1.082       .  S
C158        C159   1.383       .  A
C158        C651   1.473   1_545  S
C159        H161   1.082       .  S
N162        N163   1.320       .  A
N162        C166   1.350       .  A
N163        C164   1.342       .  A
C164        C165   1.385       .  A
C164        H167   1.081       .  S
C165        C166   1.393       .  A
C165       C1253   1.488       .  S
C166        H168   1.082       .  S
N169        N170   1.319       .  A
N169        C173   1.338       .  A
N169       Cu177   2.047       .  S
N170        C171   1.351       .  A
N170       Cu176   2.095       .  S
C171        C172   1.395       .  A
C171        H174   1.082       .  S
C172        C173   1.382       .  A
C172       C1221   1.486       .  S
C173        H175   1.081       .  S
Cu176       N179   2.098       .  S
Cu177       N187   2.048       .  S
Cu178       N180   2.100       .  S
Cu178       N186   2.098       .  S
N179        N180   1.327       .  A
N179        C183   1.350       .  A
N180        C181   1.347       .  A
C181        C182   1.384       .  A
C181        H184   1.082       .  S
C182        C183   1.385       .  A
C182        C664   1.478       .  S
C183        H185   1.082       .  S
N186        N187   1.319       .  A
N186        C190   1.353       .  A
N187        C188   1.339       .  A
C188        C189   1.381       .  A
C188        H191   1.082       .  S
C189        C190   1.393       .  A
C189       C1237   1.483       .  S
C190        H192   1.082       .  S
N193        N194   1.320       .  A
N193        C197   1.340       .  A
N193       Cu201   2.055       .  S
N194        C195   1.350       .  A
N194       Cu200   2.085       .  S
C195        C196   1.391       .  A
C195        H198   1.082       .  S
C196        C197   1.382       .  A
C196       C1205   1.482       .  S
C197        H199   1.081       .  S
Cu200       N203   2.087       .  S
Cu201       N211   2.054       .  S
Cu202       N204   2.086       .  S
Cu202       N210   2.084       .  S
N203        N204   1.326       .  A
N203        C207   1.346       .  A
N204        C205   1.346       .  A
C205        C206   1.382       .  A
C205        H208   1.082       .  S
C206        C207   1.382       .  A
C206        C649   1.471       .  S
C207        H209   1.082       .  S
N210        N211   1.319       .  A
N210        C214   1.349       .  A
N211        C212   1.340       .  A
C212        C213   1.384       .  A
C212        H215   1.081       .  S
C213        C214   1.392       .  A
C213       C1189   1.485       .  S
C214        H216   1.081       .  S
N217        N218   1.322       .  A
N217        C221   1.342       .  A
N217       Cu225   2.065       .  S
N218        C219   1.351       .  A
N218       Cu224   2.097       .  S
C219        C220   1.391       .  A
C219        H222   1.082       .  S
C220        C221   1.383       .  A
C220       C1173   1.484       .  S
C221        H223   1.082       .  S
Cu224       N227   2.099       .  S
Cu225       N235   2.065       .  S
Cu226       N228   2.085       .  S
Cu226       N234   2.083   1_455  S
N227        N228   1.325       .  A
N227        C231   1.351       .  A
N228        C229   1.346       .  A
C229        C230   1.383       .  A
C229        H232   1.082       .  S
C230        C231   1.388       .  A
C230        C693   1.480       .  S
C231        H233   1.081       .  S
N234        N235   1.319   1_655  A
N234        C238   1.347       .  A
N235        C236   1.343   1_455  A
C236        C237   1.387       .  A
C236        H239   1.081       .  S
C237        C238   1.391       .  A
C237       C1165   1.488       .  S
C238        H240   1.081       .  S
C241        C242   1.419       .  A
C241        C246   1.417       .  A
C241       C1181   1.490       .  S
C242        C243   1.417       .  A
C242       C1085   1.491       .  S
C243        C244   1.420       .  A
C243       C1141   1.492       .  S
C244        C245   1.418       .  A
C244       C1093   1.487       .  S
C245        C246   1.416       .  A
C245       C1133   1.494       .  S
C246       C1117   1.490       .  S
N247        N248   1.322   1_565  A
N247        C251   1.348   1_565  A
N247       Cu255   2.085       .  S
N248        C249   1.346       .  A
N248       Cu254   2.085   1_545  S
C249        C250   1.390       .  A
C249        H252   1.081       .  S
C250        C251   1.390       .  A
C250       C1149   1.492       .  S
C251        H253   1.081       .  S
Cu254       N257   2.085       .  S
Cu255       N265   2.085       .  S
Cu256       N258   2.078       .  S
Cu256       N264   2.079       .  S
N257        N258   1.323       .  A
N257        C261   1.347       .  A
N258        C259   1.346       .  A
C259        C260   1.383       .  A
C259        H262   1.082       .  S
C260        C261   1.385       .  A
C260        C707   1.473       .  S
C261        H263   1.082       .  S
N264        N265   1.322       .  A
N264        C268   1.346       .  A
N265        C266   1.346       .  A
C266        C267   1.389       .  A
C266        H269   1.081       .  S
C267        C268   1.388       .  A
C267       C1061   1.490       .  S
C268        H270   1.082       .  S
C271        C272   1.415       .  A
C271        C276   1.413       .  A
C271       C1053   1.487       .  S
C272        C273   1.415       .  A
C272       C1469   1.480       .  S
C273        C274   1.412       .  A
C273       C1069   1.489       .  S
C274        C275   1.414       .  A
C274       C1365   1.483       .  S
C275        C276   1.413       .  A
C275       C1037   1.483       .  S
C276       C1013   1.486       .  S
C277        C278   1.414       .  A
C277        C282   1.411       .  A
C277       C1005   1.486       .  S
C278        C279   1.416       .  A
C278       C1429   1.488       .  S
C279        C280   1.420       .  A
C279       C1157   1.490       .  S
C280        C281   1.416       .  A
C280       C1325   1.490       .  S
C281        C282   1.412       .  A
C281        C989   1.483       .  S
C282        C965   1.485       .  S
N283        N284   1.322       .  A
N283        C287   1.342       .  A
N283       Cu291   2.069       .  S
N284        C285   1.351       .  A
N284       Cu290   2.096       .  S
C285        C286   1.393       .  A
C285        H288   1.081       .  S
C286        C287   1.385       .  A
C286        C949   1.490       .  S
C287        H289   1.081       .  S
Cu290       N293   2.097       .  S
Cu291       N301   2.069       .  S
Cu292       N294   2.075       .  S
Cu292       N300   2.074   1_565  S
N293        N294   1.324       .  A
N293        C297   1.349       .  A
N294        C295   1.345       .  A
C295        C296   1.382       .  A
C295        H298   1.082       .  S
C296        C297   1.386       .  A
C296        C705   1.474       .  S
C297        H299   1.082       .  S
N300        N301   1.320   1_545  A
N300        C304   1.346       .  A
N301        C302   1.344   1_565  A
C302        C303   1.387       .  A
C302        H305   1.081       .  S
C303        C304   1.388       .  A
C303        C997   1.484       .  S
C304        H306   1.081       .  S
C307        C308   1.420       .  A
C307        C312   1.418       .  A
C307       C1333   1.492       .  S
C308        C309   1.416       .  A
C308        C933   1.490       .  S
C309        C310   1.416       .  A
C309       C1381   1.488       .  S
C310        C311   1.417       .  A
C310        C957   1.491       .  S
C311        C312   1.421       .  A
C311       C1349   1.491       .  S
C312        C917   1.493       .  S
N313        N314   1.320   1_455  A
N313        C317   1.343   1_455  A
N313       Cu321   2.066       .  S
N314        C315   1.349       .  A
N314       Cu320   2.089   1_655  S
C315        C316   1.392       .  A
C315        H318   1.082       .  S
C316        C317   1.386       .  A
C316        C941   1.489       .  S
C317        H319   1.081       .  S
Cu320       N323   2.090       .  S
Cu321       N331   2.066       .  S
Cu322       N324   2.086       .  S
Cu322       N330   2.085       .  S
N323        N324   1.325       .  A
N323        C327   1.346       .  A
N324        C325   1.348       .  A
C325        C326   1.384       .  A
C325        H328   1.082       .  S
C326        C327   1.384       .  A
C326        C692   1.475       .  S
C327        H329   1.082       .  S
N330        N331   1.321       .  A
N330        C334   1.348       .  A
N331        C332   1.342       .  A
C332        C333   1.385       .  A
C332        H335   1.081       .  S
C333        C334   1.391       .  A
C333       C1045   1.486       .  S
C334        H336   1.081       .  S
N337        N338   1.320       .  A
N337        C341   1.340       .  A
N337       Cu345   2.055       .  S
N338        C339   1.353       .  A
N338       Cu344   2.099       .  S
C339        C340   1.394       .  A
C339        H342   1.082       .  S
C340        C341   1.382       .  A
C340       C1125   1.485       .  S
C341        H343   1.082       .  S
Cu344       N347   2.101       .  S
Cu345       N355   2.055   1_554  S
Cu346       N348   2.092       .  S
Cu346       N354   2.089       .  S
N347        N348   1.327   1_554  A
N347        C351   1.348       .  A
N348        C349   1.347       .  A
C349        C350   1.382       .  A
C349        H352   1.082       .  S
C350        C351   1.385   1_556  A
C350        C680   1.476       .  S
C351        H353   1.082       .  S
N354        N355   1.319       .  A
N354        C358   1.351       .  A
N355        C356   1.338       .  A
C356        C357   1.385       .  A
C356        H359   1.080       .  S
C357        C358   1.396       .  A
C357        C901   1.491       .  S
C358        H360   1.081       .  S
C361        C362   1.414       .  A
C361        C366   1.418       .  A
C361       C1229   1.487       .  S
C362        C363   1.413       .  A
C362        C909   1.488       .  S
C363        C364   1.414       .  A
C363       C1277   1.489       .  S
C364        C365   1.413       .  A
C364        C893   1.478       .  S
C365        C366   1.414       .  A
C365        C861   1.490       .  S
C366        C869   1.484       .  S
N367        N368   1.321       .  A
N367        C371   1.344       .  A
N367       Cu375   2.070       .  S
N368        C369   1.346       .  A
N368       Cu374   2.081       .  S
C369        C370   1.390       .  A
C369        H372   1.080       .  S
C370        C371   1.388       .  A
C370        C837   1.489       .  S
C371        H373   1.081       .  S
Cu374       N377   2.082       .  S
Cu375       N385   2.070       .  S
Cu376       N378   2.073       .  S
Cu376       N384   2.072   1_565  S
N377        N378   1.322       .  A
N377        C381   1.346       .  A
N378        C379   1.346       .  A
C379        C380   1.383       .  A
C379        H382   1.082       .  S
C380        C381   1.385       .  A
C380        C706   1.472       .  S
C381        H383   1.082       .  S
N384        N385   1.321   1_545  A
N384        C388   1.343       .  A
N385        C386   1.344   1_565  A
C386        C387   1.387       .  A
C386        H389   1.081       .  S
C387        C388   1.387       .  A
C387        C885   1.483       .  S
C388        H390   1.081       .  S
C391        C392   1.415       .  A
C391        C396   1.416       .  A
C391       C1245   1.490       .  S
C392        C393   1.415       .  A
C392        C821   1.486       .  S
C393        C394   1.412       .  A
C393       C1445   1.485       .  S
C394        C395   1.415       .  A
C394        C845   1.486       .  S
C395        C396   1.415       .  A
C395       C1197   1.486       .  S
C396        C805   1.485       .  S
N397        N398   1.319   1_455  A
N397        C401   1.337   1_455  A
N397       Cu405   2.037       .  S
N398        C399   1.355       .  A
N398       Cu404   2.109   1_655  S
C399        C400   1.397       .  A
C399        H402   1.081       .  S
C400        C401   1.379       .  A
C400        C789   1.486       .  S
C401        H403   1.082   1_655  S
Cu404       N407   2.113       .  S
Cu405       N415   2.037       .  S
Cu406       N408   2.102       .  S
Cu406       N414   2.098       .  S
N407        N408   1.329       .  A
N407        C411   1.350       .  A
N408        C409   1.349       .  A
C409        C410   1.385       .  A
C409        H412   1.082       .  S
C410        C411   1.386       .  A
C410        C694   1.482       .  S
C411        H413   1.082       .  S
N414        N415   1.318       .  A
N414        C418   1.352       .  A
N415        C416   1.337       .  A
C416        C417   1.379       .  A
C416        H419   1.082       .  S
C417        C418   1.395       .  A
C417        C829   1.483       .  S
C418        H420   1.082       .  S
N421        N422   1.318   1_455  A
N421        C425   1.337   1_455  A
N421       Cu429   2.045       .  S
N422        C423   1.350       .  A
N422       Cu428   2.086   1_655  S
C423        C424   1.394       .  A
C423        H426   1.082       .  S
C424        C425   1.384       .  A
C424        C773   1.486       .  S
C425        H427   1.081   1_655  S
Cu428       N431   2.089       .  S
Cu429       N439   2.045       .  S
Cu430       N432   2.092       .  S
Cu430       N438   2.089       .  S
N431        N432   1.327       .  A
N431        C435   1.345       .  A
N432        C433   1.348       .  A
C433        C434   1.383       .  A
C433        H436   1.082       .  S
C434        C435   1.382       .  A
C434        C691   1.472       .  S
C435        H437   1.082       .  S
N438        N439   1.319       .  A
N438        C442   1.351       .  A
N439        C440   1.337       .  A
C440        C441   1.381       .  A
C440        H443   1.081       .  S
C441        C442   1.393       .  A
C441        C877   1.483       .  S
C442        H444   1.082       .  S
C445        C446   1.415       .  A
C445        C450   1.413       .  A
C445        C765   1.486       .  S
C446        C447   1.414       .  A
C446       C1421   1.488       .  S
C447        C448   1.418       .  A
C447        C781   1.486       .  S
C448        C449   1.418       .  A
C448       C1301   1.492       .  S
C449        C450   1.416       .  A
C449        C741   1.488       .  S
C450       C1261   1.487       .  S
N451        N452   1.321       .  A
N451        C455   1.346       .  A
N451       Cu459   2.074       .  S
N452        C453   1.343       .  A
N452       Cu458   2.071       .  S
C453        C454   1.386       .  A
C453        H456   1.082       .  S
C454        C455   1.388       .  A
C454        C725   1.484       .  S
C455        H457   1.082       .  S
Cu458       N461   2.071       .  S
Cu459       N469   2.074       .  S
Cu460       N462   2.081       .  S
Cu460       N468   2.081   1_565  S
N461        N462   1.323       .  A
N461        C465   1.345       .  A
N462        C463   1.347       .  A
C463        C464   1.385       .  A
C463        H466   1.082       .  S
C464        C465   1.382       .  A
C464        C708   1.472       .  S
C465        H467   1.082       .  S
N468        N469   1.323   1_545  A
N468        C472   1.347       .  A
N469        C470   1.343   1_565  A
C470        C471   1.385       .  A
C470        H473   1.082       .  S
C471        C472   1.387       .  A
C471        C757   1.481       .  S
C472        H474   1.082       .  S
C475        C476   1.416       .  A
C475        C480   1.416       .  A
C475        C733   1.487       .  S
C476        C477   1.413       .  A
C476       C1405   1.485       .  S
C477        C478   1.414       .  A
C477        C797   1.490       .  S
C478        C479   1.414       .  A
C478       C1293   1.481       .  S
C479        C480   1.418       .  A
C479        C717   1.490       .  S
C480       C1213   1.489       .  S
N481        N482   1.323       .  A
N481        C485   1.341       .  A
N481       Cu489   2.069   1_556  S
N482        C483   1.350       .  A
N482       Cu488   2.095       .  S
C483        C484   1.391       .  A
C483        H486   1.082       .  S
C484        C485   1.384       .  A
C484        C813   1.487       .  S
C485        H487   1.081       .  S
Cu488       N491   2.095       .  S
Cu489       N499   2.068       .  S
Cu490       N492   2.066       .  S
Cu490       N498   2.065       .  S
N491        N492   1.323   1_556  A
N491        C495   1.349       .  A
N492        C493   1.343       .  A
C493        C494   1.380   1_554  A
C493        H496   1.082       .  S
C494        C495   1.388       .  A
C494        C677   1.473       .  S
C495        H497   1.081       .  S
N498        N499   1.319       .  A
N498        C502   1.344       .  A
N499        C500   1.344       .  A
C500        C501   1.388       .  A
C500        H503   1.082       .  S
C501        C502   1.386       .  A
C501       C1029   1.481       .  S
C502        H504   1.082       .  S
N505        N506   1.322       .  A
N505        C509   1.344       .  A
N505       Cu513   2.077   1_554  S
N506        C507   1.346       .  A
N506       Cu512   2.077       .  S
C507        C508   1.387       .  A
C507        H510   1.081       .  S
C508        C509   1.387       .  A
C508        C981   1.485       .  S
C509        H511   1.081       .  S
Cu512       N515   2.077       .  S
Cu513       N523   2.076       .  S
Cu514       N516   2.080       .  S
Cu514       N522   2.080       .  S
N515        N516   1.322   1_554  A
N515        C519   1.346       .  A
N516        C517   1.347       .  A
C517        C518   1.385       .  A
C517        H520   1.082       .  S
C518        C519   1.384   1_556  A
C518        C678   1.473       .  S
C519        H521   1.081       .  S
N522        N523   1.322       .  A
N522        C526   1.345       .  A
N523        C524   1.346       .  A
C524        C525   1.387       .  A
C524        H527   1.082       .  S
C525        C526   1.387       .  A
C525        C749   1.484       .  S
C526        H528   1.081       .  S
N529        N530   1.318       .  A
N529        C533   1.338       .  A
N529       Cu537   2.049   1_554  S
N530        C531   1.352       .  A
N530       Cu536   2.090       .  S
C531        C532   1.395       .  A
C531        H534   1.081       .  S
C532        C533   1.384       .  A
C532        C925   1.488       .  S
C533        H535   1.081       .  S
Cu536       N539   2.093       .  S
Cu537       N547   2.049       .  S
Cu538       N540   2.094       .  S
Cu538       N546   2.090       .  S
N539        N540   1.327   1_554  A
N539        C543   1.346       .  A
N540        C541   1.348       .  A
C541        C542   1.383       .  A
C541        H544   1.081       .  S
C542        C543   1.383   1_556  A
C542        C679   1.474       .  S
C543        H545   1.082       .  S
N546        N547   1.318       .  A
N546        C550   1.352       .  A
N547        C548   1.336       .  A
C548        C549   1.385       .  A
C548        H551   1.080       .  S
C549        C550   1.397       .  A
C549        C709   1.491       .  S
C550        H552   1.081       .  S
N553        N554   1.320       .  A
N553        C557   1.344       .  A
N553       Cu561   2.069       .  S
N554        C555   1.346       .  A
N554       Cu560   2.071       .  S
C555        C556   1.386       .  A
C555        H558   1.082       .  S
C556        C557   1.386       .  A
C556        C973   1.481       .  S
C557        H559   1.082       .  S
Cu560       N563   2.072       .  S
Cu561       N571   2.069       .  S
Cu562       N564   2.088       .  S
Cu562       N570   2.088       .  S
N563        N564   1.324       .  A
N563        C567   1.343       .  A
N564        C565   1.349       .  A
C565        C566   1.386       .  A
C565        H568   1.082       .  S
C566        C567   1.380       .  A
C566        C650   1.471   1_545  S
C567        H569   1.082       .  S
N570        N571   1.322       .  A
N570        C574   1.348       .  A
N571        C572   1.342       .  A
C572        C573   1.384       .  A
C572        H575   1.082       .  S
C573        C574   1.390       .  A
C573       C1101   1.484       .  S
C574        H576   1.082       .  S
N577        N578   1.319       .  A
N577        C581   1.339       .  A
N577       Cu585   2.044       .  S
N578        C579   1.351       .  A
N578       Cu584   2.100       .  S
C579        C580   1.396       .  A
C579        H582   1.081       .  S
C580        C581   1.383       .  A
C580       C1021   1.489       .  S
C581        H583   1.081       .  S
Cu584       N587   2.103       .  S
Cu585       N595   2.044       .  S
Cu586       N588   2.104       .  S
Cu586       N594   2.101       .  S
N587        N588   1.328       .  A
N587        C591   1.350       .  A
N588        C589   1.349       .  A
C589        C590   1.386       .  A
C589        H592   1.082       .  S
C590        C591   1.386       .  A
C590        C665   1.482       .  S
C591        H593   1.082       .  S
N594        N595   1.319       .  A
N594        C598   1.353       .  A
N595        C596   1.338       .  A
C596        C597   1.380       .  A
C596        H599   1.082       .  S
C597        C598   1.394       .  A
C597       C1109   1.483       .  S
C598        H600   1.081       .  S
N601        N602   1.322       .  A
N601        C605   1.346       .  A
N601       Cu609   2.082       .  S
N602        C603   1.348       .  A
N602       Cu608   2.089       .  S
C603        C604   1.391       .  A
C603        H606   1.081       .  S
C604        C605   1.389       .  A
C604        C853   1.493       .  S
C605        H607   1.081       .  S
Cu608       N611   2.089       .  S
Cu609       N619   2.082       .  S
Cu610       N612   2.079       .  S
Cu610       N618   2.079       .  S
N611        N612   1.323       .  A
N611        C615   1.347       .  A
N612        C613   1.347       .  A
C613        C614   1.384       .  A
C613        H616   1.081       .  S
C614        C615   1.385       .  A
C614        C637   1.475   1_545  S
C615        H617   1.081       .  S
N618        N619   1.322       .  A
N618        C622   1.346       .  A
N619        C620   1.346       .  A
C620        C621   1.388       .  A
C620        H623   1.081       .  S
C621        C622   1.387       .  A
C621       C1077   1.486       .  S
C622        H624   1.081       .  S
O625       Cu633   2.009       .  S
O625        C635   1.278       .  A
O626       Cu633   2.011       .  S
O626        C636   1.278   1_455  A
O627       Cu633   2.021       .  S
O627        C637   1.279       .  A
O628       Cu633   2.018       .  S
O628        C638   1.278       .  A
O629       Cu634   2.015       .  S
O629        C638   1.278       .  A
O630       Cu634   2.014       .  S
O630        C637   1.278       .  A
O631       Cu634   2.009       .  S
O631        C636   1.277   1_455  A
O632       Cu634   2.003       .  S
O632        C635   1.277       .  A
Cu633      Cu634   2.375       .  S
O639       Cu647   2.014       .  S
O639        C649   1.278       .  A
O640       Cu647   2.017   1_554  S
O640        C650   1.278       .  A
O641       Cu647   2.020       .  S
O641        C651   1.279       .  A
O642       Cu647   2.020   1_554  S
O642        C652   1.279       .  A
O643       Cu648   2.005   1_554  S
O643        C652   1.277       .  A
O644       Cu648   2.009       .  S
O644        C651   1.277       .  A
O645       Cu648   2.008   1_554  S
O645        C650   1.278       .  A
O646       Cu648   2.010       .  S
O646        C649   1.278       .  A
Cu647      Cu648   2.375       .  S
O653       Cu661   2.022       .  S
O653        C663   1.280       .  A
O654       Cu661   2.027   1_556  S
O654        C664   1.280       .  A
O655       Cu661   2.023       .  S
O655        C665   1.279       .  A
O656       Cu661   2.021   1_556  S
O656        C666   1.278       .  A
O657       Cu662   2.025   1_556  S
O657        C666   1.280       .  A
O658       Cu662   2.029       .  S
O658        C665   1.280       .  A
O659       Cu662   2.016   1_556  S
O659        C664   1.278       .  A
O660       Cu662   2.014       .  S
O660        C663   1.277       .  A
Cu661      Cu662   2.372       .  S
O667       Cu675   2.015       .  S
O667        C677   1.279   1_554  A
O668       Cu675   2.015       .  S
O668        C678   1.278   1_554  A
O669       Cu675   2.010       .  S
O669        C679   1.277   1_554  A
O670       Cu675   2.011       .  S
O670        C680   1.277   1_554  A
O671       Cu676   2.025       .  S
O671        C680   1.280       .  A
O672       Cu676   2.022       .  S
O672        C679   1.279       .  A
O673       Cu676   2.014       .  S
O673        C678   1.278       .  A
O674       Cu676   2.017       .  S
O674        C677   1.277       .  A
Cu675      Cu676   2.374   1_554  S
O681       Cu689   2.007       .  S
O681        C691   1.277       .  A
O682       Cu689   2.010       .  S
O682        C692   1.277       .  A
O683       Cu689   2.020       .  S
O683        C693   1.279       .  A
O684       Cu689   2.023       .  S
O684        C694   1.279       .  A
O685       Cu690   2.029       .  S
O685        C694   1.280       .  A
O686       Cu690   2.029       .  S
O686        C693   1.279       .  A
O687       Cu690   2.023       .  S
O687        C692   1.279       .  A
O688       Cu690   2.020       .  S
O688        C691   1.279       .  A
Cu689      Cu690   2.373       .  S
O695       Cu703   2.014       .  S
O695        C705   1.278       .  A
O696       Cu703   2.013       .  S
O696        C706   1.278       .  A
O697       Cu703   2.013       .  S
O697        C707   1.278       .  A
O698       Cu703   2.016       .  S
O698        C708   1.278       .  A
O699       Cu704   2.013       .  S
O699        C708   1.277       .  A
O700       Cu704   2.015       .  S
O700        C707   1.278       .  A
O701       Cu704   2.017       .  S
O701        C706   1.278       .  A
O702       Cu704   2.018       .  S
O702        C705   1.279       .  A
Cu703      Cu704   2.374       .  S
C709        C710   1.410       .  A
C709        C714   1.410       .  A
C710        C711   1.392       .  A
C710        H719   1.080       .  S
C711        C712   1.395       .  A
C711        H720   1.083       .  S
C712        C718   1.401       .  A
C712        C713   1.414       .  A
C713        C715   1.404       .  A
C713        C714   1.410       .  A
C714        H721   1.082       .  S
C715        C716   1.400       .  A
C715        H722   1.082       .  S
C716        C717   1.405       .  A
C716        H723   1.083       .  S
C717        C718   1.400       .  A
C718        H724   1.083       .  S
C725        C726   1.407       .  A
C725        C730   1.407       .  A
C726        C727   1.396       .  A
C726        H735   1.082       .  S
C727        C728   1.400       .  A
C727        H736   1.084       .  S
C728        C734   1.403       .  A
C728        C729   1.414       .  A
C729        C731   1.403       .  A
C729        C730   1.405       .  A
C730        H737   1.084       .  S
C731        C732   1.397       .  A
C731        H738   1.084       .  S
C732        C733   1.403       .  A
C732        H739   1.083       .  S
C733        C734   1.403       .  A
C734        H740   1.085       .  S
C741        C742   1.403       .  A
C741        C746   1.403       .  A
C742        C743   1.398       .  A
C742        H751   1.083       .  S
C743        C744   1.403       .  A
C743        H752   1.082       .  S
C744        C750   1.406       .  A
C744        C745   1.414       .  A
C745        C747   1.401       .  A
C745        C746   1.404       .  A
C746        H753   1.083       .  S
C747        C748   1.397       .  A
C747        H754   1.083       .  S
C748        C749   1.406       .  A
C748        H755   1.083       .  S
C749        C750   1.407       .  A
C750        H756   1.082       .  S
C757        C758   1.405       .  A
C757        C762   1.408       .  A
C758        C759   1.394       .  A
C758        H767   1.082       .  S
C759        C760   1.399       .  A
C759        H768   1.084       .  S
C760        C766   1.399       .  A
C760        C761   1.414       .  A
C761        C763   1.405       .  A
C761        C762   1.406       .  A
C762        H769   1.084       .  S
C763        C764   1.400       .  A
C763        H770   1.084       .  S
C764        C765   1.403       .  A
C764        H771   1.083       .  S
C765        C766   1.402       .  A
C766        H772   1.085       .  S
C773        C774   1.409       .  A
C773        C778   1.408       .  A
C774        C775   1.393       .  A
C774        H783   1.081       .  S
C775        C776   1.397       .  A
C775        H784   1.083       .  S
C776        C782   1.401       .  A
C776        C777   1.415       .  A
C777        C779   1.404       .  A
C777        C778   1.408       .  A
C778        H785   1.083       .  S
C779        C780   1.399       .  A
C779        H786   1.083       .  S
C780        C781   1.404       .  A
C780        H787   1.083       .  S
C781        C782   1.400       .  A
C782        H788   1.084       .  S
C789        C790   1.409       .  A
C789        C794   1.406       .  A
C790        C791   1.394       .  A
C790        H799   1.081       .  S
C791        C792   1.398       .  A
C791        H800   1.085       .  S
C792        C798   1.404       .  A
C792        C793   1.416       .  A
C793        C795   1.403       .  A
C793        C794   1.410       .  A
C794        H801   1.085       .  S
C795        C796   1.400       .  A
C795        H802   1.085       .  S
C796        C797   1.404       .  A
C796        H803   1.083       .  S
C797        C798   1.401       .  A
C798        H804   1.086       .  S
C805        C806   1.404       .  A
C805        C810   1.401       .  A
C806        C807   1.399       .  A
C806        H815   1.083       .  S
C807        C808   1.404       .  A
C807        H816   1.084       .  S
C808        C814   1.408       .  A
C808        C809   1.415       .  A
C809        C811   1.398       .  A
C809        C810   1.402       .  A
C810        H817   1.085       .  S
C811        C812   1.395       .  A
C811        H818   1.084       .  S
C812        C813   1.408       .  A
C812        H819   1.081       .  S
C813        C814   1.408       .  A
C814        H820   1.084       .  S
C821        C822   1.403       .  A
C821        C826   1.402       .  A
C822        C823   1.397       .  A
C822        H831   1.083       .  S
C823        C824   1.402       .  A
C823        H832   1.084       .  S
C824        C830   1.407       .  A
C824        C825   1.416       .  A
C825        C827   1.399       .  A
C825        C826   1.403       .  A
C826        H833   1.085       .  S
C827        C828   1.395       .  A
C827        H834   1.085       .  S
C828        C829   1.408       .  A
C828        H835   1.082       .  S
C829        C830   1.405       .  A
C830        H836   1.084       .  S
C837        C838   1.408       .  A
C837        C842   1.408       .  A
C838        C839   1.399       .  A
C838        H847   1.082       .  S
C839        C840   1.401       .  A
C839        H848   1.082       .  S
C840        C846   1.406       .  A
C840        C841   1.414       .  A
C841        C843   1.403       .  A
C841        C842   1.404       .  A
C842        H849   1.080       .  S
C843        C844   1.396       .  A
C843        H850   1.082       .  S
C844        C845   1.402       .  A
C844        H851   1.084       .  S
C845        C846   1.404       .  A
C846        H852   1.083       .  S
C853        C854   1.408       .  A
C853        C858   1.410       .  A
C854        C855   1.400       .  A
C854        H863   1.082       .  S
C855        C856   1.402       .  A
C855        H864   1.083       .  S
C856        C862   1.407       .  A
C856        C857   1.414       .  A
C857        C859   1.404       .  A
C857        C858   1.408       .  A
C858        H865   1.081       .  S
C859        C860   1.399       .  A
C859        H866   1.082       .  S
C860        C861   1.403       .  A
C860        H867   1.084       .  S
C861        C862   1.405       .  A
C862        H868   1.083       .  S
C869        C870   1.404       .  A
C869        C874   1.399       .  A
C870        C871   1.399       .  A
C870        H879   1.083       .  S
C871        C872   1.403       .  A
C871        H880   1.083       .  S
C872        C878   1.408       .  A
C872        C873   1.416       .  A
C873        C875   1.396       .  A
C873        C874   1.400       .  A
C874        H881   1.085       .  S
C875        C876   1.392       .  A
C875        H882   1.084       .  S
C876        C877   1.408       .  A
C876        H883   1.081       .  S
C877        C878   1.407       .  A
C878        H884   1.083       .  S
C885        C886   1.406       .  A
C885        C890   1.408       .  A
C886        C887   1.395       .  A
C886        H895   1.082       .  S
C887        C888   1.399       .  A
C887        H896   1.083       .  S
C888        C894   1.399       .  A
C888        C889   1.414       .  A
C889        C891   1.404       .  A
C889        C890   1.403       .  A
C890        H897   1.081       .  S
C891        C892   1.397       .  A
C891        H898   1.082       .  S
C892        C893   1.401       .  A
C892        H899   1.084       .  S
C893        C894   1.400       .  A
C894        H900   1.084       .  S
C901        C902   1.410       .  A
C901        C906   1.409       .  A
C902        C903   1.394       .  A
C902        H911   1.080       .  S
C903        C904   1.397       .  A
C903        H912   1.084       .  S
C904        C910   1.403       .  A
C904        C905   1.415       .  A
C905        C907   1.404       .  A
C905        C906   1.409       .  A
C906        H913   1.083       .  S
C907        C908   1.399       .  A
C907        H914   1.084       .  S
C908        C909   1.404       .  A
C908        H915   1.083       .  S
C909        C910   1.401       .  A
C910        H916   1.084       .  S
C917        C918   1.405       .  A
C917        C922   1.403       .  A
C918        C919   1.401       .  A
C918        H927   1.083       .  S
C919        C920   1.404       .  A
C919        H928   1.083       .  S
C920        C926   1.410       .  A
C920        C921   1.414       .  A
C921        C923   1.398       .  A
C921        C922   1.402       .  A
C922        H929   1.084       .  S
C923        C924   1.394       .  A
C923        H930   1.084       .  S
C924        C925   1.408       .  A
C924        H931   1.081       .  S
C925        C926   1.409       .  A
C926        H932   1.083       .  S
C933        C934   1.402       .  A
C933        C938   1.406       .  A
C934        C935   1.398       .  A
C934        H943   1.083       .  S
C935        C936   1.404       .  A
C935        H944   1.082       .  S
C936        C942   1.406       .  A
C936        C937   1.413       .  A
C937        C939   1.403       .  A
C937        C938   1.406       .  A
C938        H945   1.083       .  S
C939        C940   1.400       .  A
C939        H946   1.083       .  S
C940        C941   1.406       .  A
C940        H947   1.082       .  S
C941        C942   1.410       .  A
C942        H948   1.082       .  S
C949        C950   1.408       .  A
C949        C954   1.409       .  A
C950        C951   1.396       .  A
C950        H959   1.082       .  S
C951        C952   1.399       .  A
C951        H960   1.083       .  S
C952        C958   1.405       .  A
C952        C953   1.414       .  A
C953        C955   1.404       .  A
C953        C954   1.409       .  A
C954        H961   1.082       .  S
C955        C956   1.400       .  A
C955        H962   1.082       .  S
C956        C957   1.404       .  A
C956        H963   1.084       .  S
C957        C958   1.403       .  A
C958        H964   1.083       .  S
C965        C966   1.402       .  A
C965        C970   1.404       .  A
C966        C967   1.395       .  A
C966        H975   1.083       .  S
C967        C968   1.402       .  A
C967        H976   1.084       .  S
C968        C974   1.403       .  A
C968        C969   1.415       .  A
C969        C971   1.402       .  A
C969        C970   1.405       .  A
C970        H977   1.084       .  S
C971        C972   1.399       .  A
C971        H978   1.084       .  S
C972        C973   1.406       .  A
C972        H979   1.082       .  S
C973        C974   1.405       .  A
C974        H980   1.084       .  S
C981        C982   1.407       .  A
C981        C986   1.407       .  A
C982        C983   1.399       .  A
C982        H991   1.083       .  S
C983        C984   1.402       .  A
C983        H992   1.082       .  S
C984        C990   1.405       .  A
C984        C985   1.414       .  A
C985        C987   1.402       .  A
C985        C986   1.403       .  A
C986        H993   1.081       .  S
C987        C988   1.395       .  A
C987        H994   1.082       .  S
C988        C989   1.401       .  A
C988        H995   1.084       .  S
C989        C990   1.404       .  A
C990        H996   1.083       .  S
C997        C998   1.406       .  A
C997       C1002   1.406       .  A
C998        C999   1.399       .  A
C998       H1007   1.082       .  S
C999       C1000   1.402       .  A
C999       H1008   1.083       .  S
C1000      C1006   1.406       .  A
C1000      C1001   1.415       .  A
C1001      C1003   1.401       .  A
C1001      C1002   1.403       .  A
C1002      H1009   1.083       .  S
C1003      C1004   1.395       .  A
C1003      H1010   1.083       .  S
C1004      C1005   1.403       .  A
C1004      H1011   1.083       .  S
C1005      C1006   1.404       .  A
C1006      H1012   1.084       .  S
C1013      C1014   1.403       .  A
C1013      C1018   1.401       .  A
C1014      C1015   1.398       .  A
C1014      H1023   1.083       .  S
C1015      C1016   1.403       .  A
C1015      H1024   1.084       .  S
C1016      C1022   1.408       .  A
C1016      C1017   1.415       .  A
C1017      C1019   1.398       .  A
C1017      C1018   1.404       .  A
C1018      H1025   1.085       .  S
C1019      C1020   1.395       .  A
C1019      H1026   1.085       .  S
C1020      C1021   1.410       .  A
C1020      H1027   1.081       .  S
C1021      C1022   1.407       .  A
C1022      H1028   1.084       .  S
C1029      C1030   1.406       .  A
C1029      C1034   1.405       .  A
C1030      C1031   1.398       .  A
C1030      H1039   1.082       .  S
C1031      C1032   1.401       .  A
C1031      H1040   1.084       .  S
C1032      C1038   1.403       .  A
C1032      C1033   1.415       .  A
C1033      C1035   1.401       .  A
C1033      C1034   1.401       .  A
C1034      H1041   1.084       .  S
C1035      C1036   1.394       .  A
C1035      H1042   1.084       .  S
C1036      C1037   1.402       .  A
C1036      H1043   1.083       .  S
C1037      C1038   1.403       .  A
C1038      H1044   1.085       .  S
C1045      C1046   1.407       .  A
C1045      C1050   1.408       .  A
C1046      C1047   1.396       .  A
C1046      H1055   1.081       .  S
C1047      C1048   1.399       .  A
C1047      H1056   1.083       .  S
C1048      C1054   1.403       .  A
C1048      C1049   1.414       .  A
C1049      C1051   1.404       .  A
C1049      C1050   1.407       .  A
C1050      H1057   1.082       .  S
C1051      C1052   1.399       .  A
C1051      H1058   1.082       .  S
C1052      C1053   1.403       .  A
C1052      H1059   1.083       .  S
C1053      C1054   1.402       .  A
C1054      H1060   1.084       .  S
C1061      C1062   1.408       .  A
C1061      C1066   1.407       .  A
C1062      C1063   1.400       .  A
C1062      H1071   1.081       .  S
C1063      C1064   1.402       .  A
C1063      H1072   1.084       .  S
C1064      C1070   1.408       .  A
C1064      C1065   1.414       .  A
C1065      C1067   1.402       .  A
C1065      C1066   1.405       .  A
C1066      H1073   1.083       .  S
C1067      C1068   1.396       .  A
C1067      H1074   1.084       .  S
C1068      C1069   1.404       .  A
C1068      H1075   1.083       .  S
C1069      C1070   1.405       .  A
C1070      H1076   1.085       .  S
C1077      C1078   1.407       .  A
C1077      C1082   1.407       .  A
C1078      C1079   1.400       .  A
C1078      H1087   1.082       .  S
C1079      C1080   1.402       .  A
C1079      H1088   1.082       .  S
C1080      C1086   1.407       .  A
C1080      C1081   1.414       .  A
C1081      C1083   1.402       .  A
C1081      C1082   1.406       .  A
C1082      H1089   1.082       .  S
C1083      C1084   1.397       .  A
C1083      H1090   1.082       .  S
C1084      C1085   1.403       .  A
C1084      H1091   1.084       .  S
C1085      C1086   1.406       .  A
C1086      H1092   1.083       .  S
C1093      C1094   1.404       .  A
C1093      C1098   1.403       .  A
C1094      C1095   1.398       .  A
C1094      H1103   1.083       .  S
C1095      C1096   1.403       .  A
C1095      H1104   1.084       .  S
C1096      C1102   1.406       .  A
C1096      C1097   1.415       .  A
C1097      C1099   1.400       .  A
C1097      C1098   1.403       .  A
C1098      H1105   1.085       .  S
C1099      C1100   1.396       .  A
C1099      H1106   1.084       .  S
C1100      C1101   1.407       .  A
C1100      H1107   1.082       .  S
C1101      C1102   1.407       .  A
C1102      H1108   1.084       .  S
C1109      C1110   1.408       .  A
C1109      C1114   1.405       .  A
C1110      C1111   1.395       .  A
C1110      H1119   1.082       .  S
C1111      C1112   1.399       .  A
C1111      H1120   1.085       .  S
C1112      C1118   1.404       .  A
C1112      C1113   1.416       .  A
C1113      C1115   1.402       .  A
C1113      C1114   1.408       .  A
C1114      H1121   1.085       .  S
C1115      C1116   1.398       .  A
C1115      H1122   1.085       .  S
C1116      C1117   1.404       .  A
C1116      H1123   1.083       .  S
C1117      C1118   1.403       .  A
C1118      H1124   1.085       .  S
C1125      C1126   1.407       .  A
C1125      C1130   1.407       .  A
C1126      C1127   1.396       .  A
C1126      H1135   1.082       .  S
C1127      C1128   1.399       .  A
C1127      H1136   1.085       .  S
C1128      C1134   1.406       .  A
C1128      C1129   1.416       .  A
C1129      C1131   1.403       .  A
C1129      C1130   1.411       .  A
C1130      H1137   1.085       .  S
C1131      C1132   1.400       .  A
C1131      H1138   1.085       .  S
C1132      C1133   1.405       .  A
C1132      H1139   1.083       .  S
C1133      C1134   1.404       .  A
C1134      H1140   1.085       .  S
C1141      C1142   1.403       .  A
C1141      C1146   1.405       .  A
C1142      C1143   1.399       .  A
C1142      H1151   1.083       .  S
C1143      C1144   1.404       .  A
C1143      H1152   1.083       .  S
C1144      C1150   1.409       .  A
C1144      C1145   1.414       .  A
C1145      C1147   1.401       .  A
C1145      C1146   1.408       .  A
C1146      H1153   1.083       .  S
C1147      C1148   1.399       .  A
C1147      H1154   1.083       .  S
C1148      C1149   1.408       .  A
C1148      H1155   1.082       .  S
C1149      C1150   1.410       .  A
C1150      H1156   1.082       .  S
C1157      C1158   1.403       .  A
C1157      C1162   1.406       .  A
C1158      C1159   1.396       .  A
C1158      H1167   1.084       .  S
C1159      C1160   1.403       .  A
C1159      H1168   1.082       .  S
C1160      C1166   1.404       .  A
C1160      C1161   1.413       .  A
C1161      C1163   1.402       .  A
C1161      C1162   1.406       .  A
C1162      H1169   1.083       .  S
C1163      C1164   1.400       .  A
C1163      H1170   1.083       .  S
C1164      C1165   1.407       .  A
C1164      H1171   1.082       .  S
C1165      C1166   1.409       .  A
C1166      H1172   1.081       .  S
C1173      C1174   1.407       .  A
C1173      C1178   1.406       .  A
C1174      C1175   1.396       .  A
C1174      H1183   1.082       .  S
C1175      C1176   1.399       .  A
C1175      H1184   1.084       .  S
C1176      C1182   1.404       .  A
C1176      C1177   1.415       .  A
C1177      C1179   1.403       .  A
C1177      C1178   1.408       .  A
C1178      H1185   1.085       .  S
C1179      C1180   1.398       .  A
C1179      H1186   1.084       .  S
C1180      C1181   1.404       .  A
C1180      H1187   1.083       .  S
C1181      C1182   1.403       .  A
C1182      H1188   1.085       .  S
C1189      C1190   1.408       .  A
C1189      C1194   1.408       .  A
C1190      C1191   1.395       .  A
C1190      H1199   1.082       .  S
C1191      C1192   1.399       .  A
C1191      H1200   1.082       .  S
C1192      C1198   1.402       .  A
C1192      C1193   1.414       .  A
C1193      C1195   1.404       .  A
C1193      C1194   1.407       .  A
C1194      H1201   1.082       .  S
C1195      C1196   1.399       .  A
C1195      H1202   1.082       .  S
C1196      C1197   1.403       .  A
C1196      H1203   1.084       .  S
C1197      C1198   1.403       .  A
C1198      H1204   1.083       .  S
C1205      C1206   1.407       .  A
C1205      C1210   1.406       .  A
C1206      C1207   1.395       .  A
C1206      H1215   1.082       .  S
C1207      C1208   1.399       .  A
C1207      H1216   1.084       .  S
C1208      C1214   1.402       .  A
C1208      C1209   1.415       .  A
C1209      C1211   1.403       .  A
C1209      C1210   1.407       .  A
C1210      H1217   1.084       .  S
C1211      C1212   1.399       .  A
C1211      H1218   1.084       .  S
C1212      C1213   1.404       .  A
C1212      H1219   1.083       .  S
C1213      C1214   1.402       .  A
C1214      H1220   1.085       .  S
C1221      C1222   1.409       .  A
C1221      C1226   1.406       .  A
C1222      C1223   1.395       .  A
C1222      H1231   1.081       .  S
C1223      C1224   1.398       .  A
C1223      H1232   1.085       .  S
C1224      C1230   1.403       .  A
C1224      C1225   1.416       .  A
C1225      C1227   1.401       .  A
C1225      C1226   1.406       .  A
C1226      H1233   1.084       .  S
C1227      C1228   1.396       .  A
C1227      H1234   1.085       .  S
C1228      C1229   1.405       .  A
C1228      H1235   1.083       .  S
C1229      C1230   1.401       .  A
C1230      H1236   1.085       .  S
C1237      C1238   1.407       .  A
C1237      C1242   1.406       .  A
C1238      C1239   1.396       .  A
C1238      H1247   1.082       .  S
C1239      C1240   1.399       .  A
C1239      H1248   1.085       .  S
C1240      C1246   1.405       .  A
C1240      C1241   1.416       .  A
C1241      C1243   1.403       .  A
C1241      C1242   1.409       .  A
C1242      H1249   1.085       .  S
C1243      C1244   1.399       .  A
C1243      H1250   1.084       .  S
C1244      C1245   1.404       .  A
C1244      H1251   1.083       .  S
C1245      C1246   1.402       .  A
C1246      H1252   1.085       .  S
C1253      C1254   1.406       .  A
C1253      C1258   1.408       .  A
C1254      C1255   1.401       .  A
C1254      H1263   1.082       .  S
C1255      C1256   1.403       .  A
C1255      H1264   1.083       .  S
C1256      C1262   1.407       .  A
C1256      C1257   1.414       .  A
C1257      C1259   1.403       .  A
C1257      C1258   1.403       .  A
C1258      H1265   1.083       .  S
C1259      C1260   1.396       .  A
C1259      H1266   1.084       .  S
C1260      C1261   1.402       .  A
C1260      H1267   1.083       .  S
C1261      C1262   1.406       .  A
C1262      H1268   1.084       .  S
C1269      C1270   1.408       .  A
C1269      C1274   1.409       .  A
C1270      C1271   1.394       .  A
C1270      H1279   1.081       .  S
C1271      C1272   1.398       .  A
C1271      H1280   1.083       .  S
C1272      C1278   1.402       .  A
C1272      C1273   1.415       .  A
C1273      C1275   1.404       .  A
C1273      C1274   1.409       .  A
C1274      H1281   1.082       .  S
C1275      C1276   1.400       .  A
C1275      H1282   1.082       .  S
C1276      C1277   1.404       .  A
C1276      H1283   1.083       .  S
C1277      C1278   1.401       .  A
C1278      H1284   1.084       .  S
C1285      C1286   1.406       .  A
C1285      C1290   1.407       .  A
C1286      C1287   1.399       .  A
C1286      H1295   1.082       .  S
C1287      C1288   1.402       .  A
C1287      H1296   1.084       .  S
C1288      C1294   1.403       .  A
C1288      C1289   1.413       .  A
C1289      C1291   1.403       .  A
C1289      C1290   1.400       .  A
C1290      H1297   1.084       .  S
C1291      C1292   1.395       .  A
C1291      H1298   1.084       .  S
C1292      C1293   1.401       .  A
C1292      H1299   1.083       .  S
C1293      C1294   1.403       .  A
C1294      H1300   1.085       .  S
C1301      C1302   1.406       .  A
C1301      C1306   1.401       .  A
C1302      C1303   1.400       .  A
C1302      H1311   1.083       .  S
C1303      C1304   1.403       .  A
C1303      H1312   1.084       .  S
C1304      C1310   1.411       .  A
C1304      C1305   1.416       .  A
C1305      C1307   1.397       .  A
C1305      C1306   1.403       .  A
C1306      H1313   1.085       .  S
C1307      C1308   1.393       .  A
C1307      H1314   1.085       .  S
C1308      C1309   1.409       .  A
C1308      H1315   1.081       .  S
C1309      C1310   1.408       .  A
C1310      H1316   1.085       .  S
C1317      C1318   1.408       .  A
C1317      C1322   1.408       .  A
C1318      C1319   1.392       .  A
C1318      H1327   1.081       .  S
C1319      C1320   1.396       .  A
C1319      H1328   1.083       .  S
C1320      C1326   1.400       .  A
C1320      C1321   1.415       .  A
C1321      C1323   1.404       .  A
C1321      C1322   1.409       .  A
C1322      H1329   1.082       .  S
C1323      C1324   1.401       .  A
C1323      H1330   1.082       .  S
C1324      C1325   1.405       .  A
C1324      H1331   1.083       .  S
C1325      C1326   1.401       .  A
C1326      H1332   1.083       .  S
C1333      C1334   1.405       .  A
C1333      C1338   1.403       .  A
C1334      C1335   1.401       .  A
C1334      H1343   1.083       .  S
C1335      C1336   1.404       .  A
C1335      H1344   1.085       .  S
C1336      C1342   1.409       .  A
C1336      C1337   1.415       .  A
C1337      C1339   1.398       .  A
C1337      C1338   1.402       .  A
C1338      H1345   1.086       .  S
C1339      C1340   1.394       .  A
C1339      H1346   1.085       .  S
C1340      C1341   1.408       .  A
C1340      H1347   1.082       .  S
C1341      C1342   1.407       .  A
C1342      H1348   1.085       .  S
C1349      C1350   1.403       .  A
C1349      C1354   1.405       .  A
C1350      C1351   1.397       .  A
C1350      H1359   1.083       .  S
C1351      C1352   1.403       .  A
C1351      H1360   1.082       .  S
C1352      C1358   1.405       .  A
C1352      C1353   1.414       .  A
C1353      C1355   1.402       .  A
C1353      C1354   1.405       .  A
C1354      H1361   1.083       .  S
C1355      C1356   1.399       .  A
C1355      H1362   1.082       .  S
C1356      C1357   1.407       .  A
C1356      H1363   1.082       .  S
C1357      C1358   1.408       .  A
C1358      H1364   1.082       .  S
C1365      C1366   1.403       .  A
C1365      C1370   1.401       .  A
C1366      C1367   1.396       .  A
C1366      H1375   1.083       .  S
C1367      C1368   1.402       .  A
C1367      H1376   1.084       .  S
C1368      C1374   1.405       .  A
C1368      C1369   1.415       .  A
C1369      C1371   1.400       .  A
C1369      C1370   1.404       .  A
C1370      H1377   1.085       .  S
C1371      C1372   1.396       .  A
C1371      H1378   1.084       .  S
C1372      C1373   1.407       .  A
C1372      H1379   1.082       .  S
C1373      C1374   1.407       .  A
C1374      H1380   1.084       .  S
C1381      C1382   1.404       .  A
C1381      C1386   1.402       .  A
C1382      C1383   1.400       .  A
C1382      H1391   1.083       .  S
C1383      C1384   1.404       .  A
C1383      H1392   1.082       .  S
C1384      C1390   1.409       .  A
C1384      C1385   1.415       .  A
C1385      C1387   1.398       .  A
C1385      C1386   1.404       .  A
C1386      H1393   1.084       .  S
C1387      C1388   1.395       .  A
C1387      H1394   1.083       .  S
C1388      C1389   1.409       .  A
C1388      H1395   1.081       .  S
C1389      C1390   1.409       .  A
C1390      H1396   1.082       .  S
C1397      C1398   1.407       .  A
C1397      C1402   1.406       .  A
C1398      C1399   1.393       .  A
C1398      H1407   1.082       .  S
C1399      C1400   1.398       .  A
C1399      H1408   1.084       .  S
C1400      C1406   1.400       .  A
C1400      C1401   1.415       .  A
C1401      C1403   1.404       .  A
C1401      C1402   1.407       .  A
C1402      H1409   1.084       .  S
C1403      C1404   1.399       .  A
C1403      H1410   1.083       .  S
C1404      C1405   1.403       .  A
C1404      H1411   1.083       .  S
C1405      C1406   1.400       .  A
C1406      H1412   1.084       .  S
C1413      C1414   1.406       .  A
C1413      C1418   1.407       .  A
C1414      C1415   1.398       .  A
C1414      H1423   1.083       .  S
C1415      C1416   1.401       .  A
C1415      H1424   1.083       .  S
C1416      C1422   1.403       .  A
C1416      C1417   1.414       .  A
C1417      C1419   1.403       .  A
C1417      C1418   1.404       .  A
C1418      H1425   1.082       .  S
C1419      C1420   1.397       .  A
C1419      H1426   1.083       .  S
C1420      C1421   1.403       .  A
C1420      H1427   1.083       .  S
C1421      C1422   1.404       .  A
C1422      H1428   1.083       .  S
C1429      C1430   1.404       .  A
C1429      C1434   1.404       .  A
C1430      C1431   1.396       .  A
C1430      H1439   1.084       .  S
C1431      C1432   1.402       .  A
C1431      H1440   1.083       .  S
C1432      C1438   1.405       .  A
C1432      C1433   1.415       .  A
C1433      C1435   1.401       .  A
C1433      C1434   1.405       .  A
C1434      H1441   1.084       .  S
C1435      C1436   1.397       .  A
C1435      H1442   1.083       .  S
C1436      C1437   1.406       .  A
C1436      H1443   1.083       .  S
C1437      C1438   1.406       .  A
C1438      H1444   1.083       .  S
C1445      C1446   1.402       .  A
C1445      C1450   1.404       .  A
C1446      C1447   1.396       .  A
C1446      H1455   1.084       .  S
C1447      C1448   1.403       .  A
C1447      H1456   1.081       .  S
C1448      C1454   1.404       .  A
C1448      C1449   1.413       .  A
C1449      C1451   1.402       .  A
C1449      C1450   1.405       .  A
C1450      H1457   1.082       .  S
C1451      C1452   1.399       .  A
C1451      H1458   1.082       .  S
C1452      C1453   1.407       .  A
C1452      H1459   1.082       .  S
C1453      C1454   1.408       .  A
C1454      H1460   1.080       .  S
C1461      C1462   1.408       .  A
C1461      C1466   1.407       .  A
C1462      C1463   1.397       .  A
C1462      H1471   1.081       .  S
C1463      C1464   1.400       .  A
C1463      H1472   1.084       .  S
C1464      C1470   1.402       .  A
C1464      C1465   1.414       .  A
C1465      C1467   1.403       .  A
C1465      C1466   1.402       .  A
C1466      H1473   1.082       .  S
C1467      C1468   1.396       .  A
C1467      H1474   1.083       .  S
C1468      C1469   1.401       .  A
C1468      H1475   1.083       .  S
C1469      C1470   1.402       .  A
C1470      H1476   1.084       .  S
