geometry optimzed in LAMMPS
_audit_creation_date              2020-12-01 
_audit_creation_method            'lammps2cif' 
_symmetry_space_group_name_H-M    'P1' 
_symmetry_Int_Tables_number       1 
_symmetry_cell_setting            triclinic 
loop_ 
_symmetry_equiv_pos_as_xyz 
  x,y,z 
_cell_length_a                    46.43345543 
_cell_length_b                    51.01462397143052 
_cell_length_c                    27.184192123570302 
_cell_angle_alpha                 88.89456601644775 
_cell_angle_beta                  89.29803544168179 
_cell_angle_gamma                 122.19366057182404 
loop_ 
_atom_site_label 
_atom_site_type_symbol 
_atom_site_fract_x 
_atom_site_fract_y 
_atom_site_fract_z 
_atom_site_charge 
N1          N  0.08991798  0.14720830  0.73084804    -0.03000
C2          C  0.09286565  0.17500843  0.72293691    -0.00400
C3          C  0.09610716  0.18911317  0.76734510    -0.23300
C4          C  0.09537318  0.16977817  0.80358544    -0.23500
C5          C  0.09206092  0.14460553  0.78025729    -0.00500
H6          H  0.10049422  0.21193101  0.77258503     0.13200
H7          H  0.09789782  0.17394243  0.84264256     0.13300
N8          N  0.11467059  0.41045083  0.75578744    -0.03000
C9          C  0.13349010  0.39789896  0.74537858    -0.00400
C10         C  0.15001877  0.39720183  0.78684621    -0.23300
C11         C  0.14016885  0.40859489  0.82440606    -0.23500
C12         C  0.11764451  0.41557862  0.80482110    -0.00500
H13         H  0.16602140  0.38777617  0.78999513     0.13200
H14         H  0.14736962  0.41019072  0.86245289     0.13300
C15         C  0.16737881  0.33256457  0.61769369     0.80700
N16         N  0.20121091  0.34486952  0.62361572    -0.77600
C17         C  0.21453145  0.32677558  0.62368982     0.83100
N18         N  0.19348956  0.29581370  0.61753428    -0.77600
C19         C  0.15968871  0.28287046  0.61003094     0.83200
N20         N  0.14702624  0.30164001  0.60990560    -0.79300
N21         N  0.35472727  0.40292106  0.76124045    -0.03000
C22         C  0.32019492  0.38607022  0.75865735    -0.00400
C23         C  0.30558877  0.38775119  0.80220787    -0.23300
C24         C  0.33169782  0.40549372  0.83303276    -0.23500
C25         C  0.36155003  0.41482930  0.80700510    -0.00500
H26         H  0.27868640  0.37650649  0.81105392     0.13200
H27         H  0.32916074  0.41021276  0.87094720     0.13300
O28         O  0.08574006  0.06822182  0.96803973    -0.80500
O29         O  0.03712187  0.45441770  0.12255515    -0.65100
O30         O  0.07598515  0.01237266  0.01139480    -1.11700
C31         C  0.47122989  0.45104386  0.93810726     1.06400
O32         O  0.01085335  0.41420364  0.07314758    -0.78400
O33         O  0.03206322  0.43112531  0.97763207    -0.65900
Ni34       Ni  0.10358901  0.05611075  0.02190584     1.34900
C35         C  0.04836034  0.45074024  0.94267063     0.85200
O36         O  0.09789729  0.00098690  0.10125559    -0.78900
O37         O  0.12696850  0.05047219  0.07498281    -0.89200
C38         C  0.02165355  0.42548368  0.11517470     0.84700
O39         O  0.07237461  0.05731639  0.06669099    -0.67400
O40         O  0.47173523  0.42883300  0.95932169    -0.86700
C41         C  0.05197618  0.03842022  0.10004001     0.85600
C42         C  0.12370899  0.02859811  0.10253105     1.07100
H43         H  0.00152585  0.47206668  0.05225165     0.38900
O44         O  0.01785208  0.46927671  0.03465591    -1.09300
O45         O  0.04972113  0.47623652  0.93981244    -0.66000
Ni46       Ni  0.03749230  0.49923553  0.98178828     1.26300
O47         O  0.04486270  0.01054309  0.10401901    -0.66200
O48         O  0.49100080  0.47902386  0.94954976    -0.78500
C49         C  0.07225310  0.05535595  0.92791768     0.85000
O50         O  0.05462487  0.02635924  0.92476317    -0.65700
Ni51       Ni  0.99522133  0.42655397  0.01688499     1.27400
Ni52       Ni  0.05877215  0.48587499  0.07125931     1.26100
H53         H  0.09016694  0.00688780  0.99388640     0.39500
O54         O  0.01415008  0.40972470  0.49164149    -0.80500
O55         O  0.05750079  0.02393964  0.61327604    -0.65100
O56         O  0.01506952  0.46267418  0.52630794    -1.11700
C57         C  0.12239279  0.01816390  0.42995405     1.06400
O58         O  0.08968451  0.06348983  0.56036035    -0.78400
O59         O  0.07341017  0.04953252  0.46529648    -0.65900
Ni60       Ni  0.99267794  0.41957224  0.54362477     1.34900
C61         C  0.05341370  0.02962838  0.43509090     0.85200
O62         O  0.49085980  0.47327862  0.61541058    -0.78900
O63         O  0.46333209  0.42381079  0.59269083    -0.89200
C64         C  0.07551967  0.05284919  0.60248421     0.84700
O65         O  0.02549062  0.42277312  0.58884165    -0.67400
O66         O  0.12675434  0.04156657  0.45262034    -0.86700
C67         C  0.04505225  0.44369847  0.61805383     0.85600
C68         C  0.46552255  0.44523355  0.61892530     1.07100
H69         H  0.09233056  0.00155217  0.54561145     0.38900
O70         O  0.07775816  0.00637937  0.52781851    -1.09300
O71         O  0.04630830  0.00180330  0.43580847    -0.66000
Ni72       Ni  0.05524041  0.48005460  0.48587957     1.26300
O73         O  0.05003323  0.47087004  0.61703619    -0.66200
O74         O  0.09793258  0.99081737  0.44021954    -0.78500
C75         C  0.02242207  0.42074407  0.44769998     0.85000
O76         O  0.03429550  0.44905299  0.43806808    -0.65700
Ni77       Ni  0.10566103  0.04935239  0.50758250     1.27400
Ni78       Ni  0.03452744  0.49269890  0.57667271     1.26100
H79         H  0.99855935  0.46545179  0.50987190     0.39500
N80         N  0.23032470  0.05133359  0.23588419    -0.03000
C81         C  0.26458985  0.06771485  0.22696717    -0.00400
C82         C  0.28122032  0.06731780  0.26848841    -0.23300
C83         C  0.25677851  0.05126111  0.30465374    -0.23500
C84         C  0.22570128  0.04171241  0.28411173    -0.00500
H85         H  0.30847466  0.07990506  0.27322506     0.13200
H86         H  0.26140692  0.04902036  0.34297020     0.13300
N87         N  0.00859782  0.09225552  0.24785997    -0.03000
C88         C  0.49145957  0.10639177  0.24799885    -0.00400
C89         C  0.47923019  0.10732198  0.29416240    -0.23300
C90         C  0.99060811  0.09571367  0.32381499    -0.23500
C91         C  0.00629791  0.08407441  0.29653209    -0.00500
H92         H  0.46587170  0.11866695  0.30373183     0.13200
H93         H  0.98585528  0.09316863  0.36322134     0.13300
C94         C  0.43506873  0.15686377  0.12203959     0.80700
N95         N  0.40055503  0.13800355  0.12043696    -0.77600
C96         C  0.38060903  0.14996640  0.11442304     0.83100
N97         N  0.39572709  0.18133861  0.11135894    -0.77600
C98         C  0.43007653  0.20071628  0.11451818     0.83200
N99         N  0.44933149  0.18805009  0.11810987    -0.79300
N100        N  0.99694789  0.32903391  0.25459641    -0.03000
C101        C  0.98911681  0.30020491  0.24266367    -0.00400
C102        C  0.99158657  0.28495558  0.28340527    -0.23300
C103        C  0.99992967  0.30444299  0.32207098    -0.23500
C104        C  0.00190483  0.33083523  0.30387362    -0.00500
H105        H  0.98589135  0.26143644  0.28535334     0.13200
H106        H  0.00265020  0.29931263  0.35991839     0.13300
C107        C  0.42335538  0.23780696  0.16327487    -0.05300
C108        C  0.44450845  0.23278786  0.13274777     0.00600
C109        C  0.47991512  0.25580565  0.13000072    -0.08000
C110        C  0.99468533  0.28159430  0.16177642    -0.05400
C111        C  0.47260813  0.28227208  0.19894854     0.00600
C112        C  0.43680118  0.26165862  0.19735977    -0.07900
C113        C  0.41290380  0.26298863  0.23447509     0.62500
H114        H  0.39628203  0.22087483  0.16437099     0.13200
H115        H  0.02199824  0.29751975  0.16318614     0.13200
C116        C  0.00579694  0.25885721  0.08863789     0.62700
F117        F  0.37905255  0.24148312  0.22545850    -0.22500
F118        F  0.41744760  0.29196854  0.23209156    -0.19800
F119        F  0.41938600  0.25702198  0.28151398    -0.19500
F120        F  0.98904637  0.23940952  0.05029825    -0.19500
F121        F  0.02653887  0.25043652  0.11054002    -0.19800
F122        F  0.02591000  0.28863035  0.06872631    -0.22500
C123        C  0.46439602  0.10353681  0.16881090    -0.05300
C124        C  0.48692883  0.12206486  0.20507754     0.00600
C125        C  0.49667557  0.15359392  0.20730304    -0.08000
C126        C  0.48120665  0.16443136  0.17614022    -0.05400
C127        C  0.45562391  0.14500566  0.14375397     0.00600
C128        C  0.44868743  0.11455723  0.13765729    -0.07900
C129        C  0.42264624  0.09234193  0.10216476     0.62500
H130        H  0.45668510  0.07941661  0.16787035     0.13200
H131        H  0.48751401  0.18799496  0.18039662     0.13200
C132        C  0.02507516  0.18038822  0.23857061     0.62700
F133        F  0.43032232  0.07089699  0.08726952    -0.22500
F134        F  0.42189204  0.10785521  0.06037947    -0.19800
F135        F  0.39095672  0.07672369  0.12542826    -0.19500
F136        F  0.04075441  0.16941638  0.26770157    -0.19500
F137        F  0.00828196  0.18967548  0.26908723    -0.19800
F138        F  0.05028095  0.20602443  0.21195828    -0.22500
C139        C  0.29266637  0.07919935  0.14439695    -0.05300
C140        C  0.28378900  0.08995800  0.18550779     0.00600
C141        C  0.30230143  0.12227131  0.19367937    -0.08000
C142        C  0.33199729  0.14183140  0.16538445    -0.05400
C143        C  0.34384430  0.13034441  0.12915908     0.00600
C144        C  0.32208771  0.09916895  0.11506327    -0.07900
C145        C  0.32833284  0.08611228  0.06938395     0.62500
H146        H  0.27790608  0.05465198  0.13710202     0.13200
H147        H  0.34760274  0.16595145  0.17500316     0.13200
C148        C  0.29356788  0.13726005  0.23407390     0.62700
F149        F  0.30067033  0.07535893  0.03925248    -0.22500
F150        F  0.33173700  0.06161347  0.08251120    -0.19800
F151        F  0.35698728  0.10789829  0.04242825    -0.19500
F152        F  0.32015547  0.15119245  0.26632531    -0.19500
F153        F  0.26422691  0.11663695  0.26068768    -0.19800
F154        F  0.28909896  0.15972614  0.21307581    -0.22500
C155        C  0.03620686  0.38396399  0.33556707    -0.05300
C156        C  0.00520007  0.35540394  0.33597073     0.00600
C157        C  0.97923276  0.34930240  0.37094301    -0.08000
C158        C  0.98606784  0.37151514  0.40627050    -0.05400
C159        C  0.01749093  0.39967244  0.40723917     0.00600
C160        C  0.04288960  0.40643643  0.37067874    -0.07900
C161        C  0.07748221  0.43637832  0.37021698     0.62500
H162        H  0.05560113  0.38802336  0.30854762     0.13200
H163        H  0.46397632  0.36530122  0.43628658     0.13200
C164        C  0.44137238  0.31703493  0.37521284     0.62700
F165        F  0.09935358  0.43677208  0.33472279    -0.22500
F166        F  0.09207861  0.43980116  0.41556884    -0.19800
F167        F  0.07400330  0.46119195  0.36011192    -0.19500
F168        F  0.44488669  0.29245064  0.38695569    -0.19500
F169        F  0.42642348  0.31243864  0.32996063    -0.19800
F170        F  0.41949455  0.31717597  0.41014163    -0.22500
C171        C  0.16022701  0.00395548  0.38939800    -0.05300
C172        C  0.14671175  0.02284296  0.38952255     0.00600
C173        C  0.15539406  0.04458112  0.35000342    -0.08000
C174        C  0.17973318  0.04858596  0.31430054    -0.05400
C175        C  0.19457833  0.03076637  0.31542801    -0.01200
C176        C  0.18373037  0.00721839  0.35280809    -0.07900
C177        C  0.19604865  0.98499273  0.35655913     0.62500
H178        H  0.15262384  0.98658936  0.41869490     0.13200
H179        H  0.18866804  0.06700819  0.28676768     0.13200
C180        C  0.13817088  0.06268531  0.34437709     0.62700
F181        F  0.16821081  0.95488059  0.35890235    -0.22500
F182        F  0.21418963  0.99046573  0.39912492    -0.19800
F183        F  0.21642255  0.98740630  0.31708504    -0.19500
F184        F  0.14675551  0.08293013  0.38245015    -0.19500
F185        F  0.10331516  0.04215988  0.34464135    -0.19800
F186        F  0.14755947  0.07988354  0.30056853    -0.22500
C187        C  0.49640735  0.03553827  0.34361217    -0.05300
C188        C  0.02057144  0.06736034  0.32094159     0.00600
C189        C  0.05454000  0.08364591  0.33676645    -0.08000
C190        C  0.06373677  0.07015485  0.37384067    -0.05400
C191        C  0.04049517  0.04071801  0.39502333     0.00600
C192        C  0.50615601  0.02252562  0.38108733    -0.07900
C193        C  0.47962883  0.99203898  0.40621577     0.62500
H194        H  0.47007316  0.02376721  0.33291741     0.13200
H195        H  0.08949422  0.08277969  0.38694710     0.13200
C196        C  0.08092585  0.11541003  0.31519084     0.62700
F197        F  0.44743926  0.98088300  0.38829787    -0.22500
F198        F  0.47845530  0.99621477  0.45615696    -0.19800
F199        F  0.48384328  0.46851217  0.39767611    -0.19500
F200        F  0.11212836  0.12771890  0.33718448    -0.19500
F201        F  0.07028331  0.13583910  0.32137141    -0.19800
F202        F  0.08561519  0.11287165  0.26570287    -0.22500
C203        C  0.04131619  0.39603020  0.16216803    -0.05300
C204        C  0.01653220  0.40341431  0.15573494     0.00600
C205        C  0.98570506  0.38690917  0.18376286    -0.08000
C206        C  0.98033924  0.36290548  0.21670896    -0.05400
C207        C  0.00434081  0.35436803  0.22123960     0.00600
C208        C  0.03597210  0.37191930  0.19472927    -0.07900
C209        C  0.06537015  0.36705867  0.19974540     0.62500
H210        H  0.06495110  0.40889259  0.14072935     0.13200
H211        H  0.45323964  0.34764707  0.23999373     0.13200
C212        C  0.45364800  0.39113544  0.17872611     0.62700
F213        F  0.09319656  0.39374091  0.21720051    -0.22500
F214        F  0.07393411  0.36133841  0.15401394    -0.19800
F215        F  0.05843616  0.34284028  0.23145275    -0.19500
F216        F  0.44234981  0.38532030  0.13100152    -0.19500
F217        F  0.46629647  0.42186844  0.18817347    -0.19800
F218        F  0.42608817  0.37306135  0.21045179    -0.22500
C219        C  0.05207925  0.08313874  0.13621289    -0.05300
C220        C  0.03758172  0.05075365  0.13663207     0.00600
C221        C  0.01156115  0.03231862  0.17276564    -0.08000
C222        C  0.00206513  0.04712415  0.20688381    -0.05400
C223        C  0.01815174  0.07948768  0.20808971     0.00600
C224        C  0.04384074  0.09791823  0.17194249    -0.07900
C225        C  0.06423658  0.13305791  0.17024310     0.62500
H226        H  0.07151323  0.09760305  0.10865102     0.13200
H227        H  0.98215884  0.03345573  0.23422537     0.13200
C228        C  0.99379896  0.99729600  0.17642493     0.62700
F229        F  0.09771933  0.14442564  0.15604245    -0.22500
F230        F  0.06494561  0.14497053  0.21546247    -0.19800
F231        F  0.54898578  0.14241107  0.13791166    -0.19500
F232        F  0.01696992  0.98935618  0.18926847    -0.19500
F233        F  0.98079110  0.47976332  0.13857876    -0.19800
F234        F  0.96780750  0.98426025  0.21185560    -0.22500
C235        C  0.19945900  0.06976163  0.18855059    -0.05300
C236        C  0.20415622  0.04565025  0.20155951     0.00600
C237        C  0.18258486  0.01603505  0.18179120    -0.08000
C238        C  0.15717729  0.01169456  0.14911254    -0.05400
C239        C  0.15171298  0.03559369  0.13694262     0.00600
C240        C  0.17277054  0.06509666  0.15827794    -0.07900
C241        C  0.16616454  0.09114271  0.15216681     0.62500
H242        H  0.21618563  0.09212747  0.20406122     0.13200
H243        H  0.14091350  0.98922630  0.13334493     0.13200
C244        C  0.18586634  0.98888000  0.19588869     0.62700
F245        F  0.18575111  0.11525107  0.18319868    -0.22500
F246        F  0.13233286  0.08004590  0.16341872    -0.19800
F247        F  0.17396282  0.10311610  0.10442999    -0.19500
F248        F  0.17490480  0.97983111  0.24413147    -0.19500
F249        F  0.21938424  0.99717040  0.19065729    -0.19800
F250        F  0.16625113  0.96360455  0.16691751    -0.22500
C251        C  0.39937697  0.44371056  0.70784508    -0.05300
C252        C  0.37990282  0.41216113  0.72200519     0.00600
C253        C  0.38861048  0.39169720  0.70248643    -0.08000
C254        C  0.41680658  0.40385609  0.66962230    -0.05400
C255        C  0.43677555  0.43561621  0.65544609     0.00600
C256        C  0.42768357  0.45598232  0.67496306    -0.07900
C257        C  0.44738122  0.49041171  0.66171344     0.62500
H258        H  0.39243905  0.45885550  0.72414154     0.13200
H259        H  0.42344406  0.38819723  0.65464796     0.13200
C260        C  0.36867798  0.35720335  0.71576615     0.62700
F261        F  0.44930303  0.49487543  0.61113047    -0.22500
F262        F  0.97675272  0.50643544  0.67129714    -0.19800
F263        F  0.92602486  0.50153789  0.66657452    -0.19500
F264        F  0.33825914  0.34262714  0.69162271    -0.19500
F265        F  0.36215332  0.35202530  0.76583281    -0.19800
F266        F  0.38633017  0.34347222  0.70196866    -0.22500
C267        C  0.41310141  0.41523308  0.82928952    -0.05300
C268        C  0.39516867  0.43026074  0.83061918     0.00600
C269        C  0.40588058  0.45526706  0.86258149    -0.08000
C270        C  0.43088959  0.46131816  0.89687453    -0.05400
C271        C  0.44652062  0.44415893  0.89879894     0.00600
C272        C  0.43881068  0.42175312  0.86262290    -0.07900
C273        C  0.45722329  0.40455112  0.85880325     0.62500
H274        H  0.40536998  0.39674756  0.80415303     0.13200
H275        H  0.43778380  0.47935037  0.92313426     0.13200
C276        C  0.39190992  0.47621949  0.86212590     0.62700
F277        F  0.44914278  0.38760485  0.81640853    -0.22500
F278        F  0.44825520  0.38412039  0.89855631    -0.19800
F279        F  0.00132411  0.43797182  0.85416643    -0.19500
F280        F  0.37374785  0.47162518  0.90552279    -0.19500
F281        F  0.37110704  0.47123231  0.82286403    -0.19800
F282        F  0.41867651  0.50680823  0.85867209    -0.22500
C283        C  0.30246696  0.38180061  0.67167671    -0.05300
C284        C  0.29930763  0.36719617  0.71746874     0.00600
C285        C  0.27197076  0.33603380  0.72600952    -0.08000
C286        C  0.24593658  0.32255132  0.69194260    -0.05400
C287        C  0.24715072  0.33840927  0.64858858     0.00600
C288        C  0.27714597  0.36734647  0.63619873    -0.07900
C289        C  0.28366914  0.38353923  0.58629613     0.62500
H290        H  0.32397029  0.40516069  0.66434207     0.13200
H291        H  0.22345180  0.29997102  0.70085244     0.13200
C292        C  0.26817751  0.31631146  0.77117834     0.62700
F293        F  0.31452326  0.38981614  0.56705288    -0.22500
F294        F  0.28529147  0.41118322  0.59135463    -0.19800
F295        F  0.25885941  0.36573539  0.55301691    -0.19500
F296        F  0.24179827  0.31245161  0.80108270    -0.19500
F297        F  0.29740562  0.32894680  0.79819306    -0.19800
F298        F  0.26055486  0.28748327  0.75663635    -0.22500
C299        C  0.06221502  0.40254907  0.72160762    -0.05300
C300        C  0.09782454  0.41964994  0.72171183     0.00600
C301        C  0.11613990  0.44673867  0.69089109    -0.08000
C302        C  0.09812162  0.45375122  0.65727165    -0.05400
C303        C  0.06250382  0.43561473  0.65534164     0.00600
C304        C  0.04409988  0.41020804  0.68933747    -0.07900
C305        C  0.00548471  0.39209149  0.69313011     0.62500
H306        H  0.04868777  0.38317183  0.74747592     0.13200
H307        H  0.11204306  0.47382430  0.63252699     0.13200
C308        C  0.15425659  0.46973128  0.69305835     0.62700
F309        F  0.48889849  0.36433210  0.72330338    -0.22500
F310        F  0.49055918  0.36990408  0.64133291    -0.19800
F311        F  0.99459489  0.41235253  0.69918576    -0.19500
F312        F  0.16957386  0.47002729  0.64894643    -0.19500
F313        F  0.16939958  0.46328218  0.73078632    -0.19800
F314        F  0.16034416  0.49904627  0.70012250    -0.22500
C315        C  0.10287485  0.45335071  0.83174918    -0.05300
C316        C  0.09680349  0.42342646  0.83544863     0.00600
C317        C  0.07258212  0.40188751  0.87057308    -0.08000
C318        C  0.05772252  0.41204831  0.90424337    -0.05400
C319        C  0.06517696  0.44268258  0.90329164     0.00600
C320        C  0.08690484  0.46337931  0.86426704    -0.07900
C321        C  0.09355107  0.49575802  0.85601545     0.62500
H322        H  0.12086752  0.46901195  0.80356691     0.13200
H323        H  0.04003374  0.39572237  0.93202193     0.13200
C324        C  0.06184703  0.36801456  0.87213611     0.62700
F325        F  0.11486429  0.51100083  0.81548777    -0.22500
F326        F  0.10886285  0.51343429  0.89660975    -0.19800
F327        F  0.06323780  0.49394314  0.84759932    -0.19500
F328        F  0.08803381  0.36513051  0.88878861    -0.19500
F329        F  0.05324067  0.35617769  0.82562226    -0.19800
F330        F  0.03378382  0.35010939  0.90311526    -0.22500
C331        C  0.16103501  0.39841032  0.66691493    -0.05300
C332        C  0.13333840  0.38210131  0.70005253     0.00600
C333        C  0.11236828  0.34938579  0.69744557    -0.08000
C334        C  0.12205027  0.33393180  0.66519639    -0.05400
C335        C  0.15212978  0.35012800  0.63605665     0.00600
C336        C  0.17002416  0.38300139  0.63354852    -0.07900
C337        C  0.20024985  0.40256930  0.59894832     0.62500
H338        H  0.17722939  0.42334333  0.66936395     0.13200
H339        H  0.10778732  0.30885991  0.66614124     0.13200
C340        C  0.08108780  0.33067585  0.73093039     0.62700
F341        F  0.20008524  0.42822978  0.58188843    -0.22500
F342        F  0.19949121  0.38626592  0.55836846    -0.19800
F343        F  0.22990726  0.41250170  0.62397116    -0.19500
F344        F  0.05899272  0.34059741  0.72336015    -0.19500
F345        F  0.09030256  0.33437880  0.77964250    -0.19800
F346        F  0.06386145  0.29932237  0.72175394    -0.22500
C347        C  0.11346565  0.12001860  0.69009786    -0.05300
C348        C  0.08656904  0.12483284  0.69578768     0.00600
C349        C  0.05532988  0.10466510  0.67277586    -0.08000
C350        C  0.05208503  0.08022355  0.64491337    -0.05400
C351        C  0.07918892  0.07579168  0.63858950     0.00600
C352        C  0.11056944  0.09616911  0.66103489    -0.07900
C353        C  0.14074524  0.09254208  0.65444374     0.62500
H354        H  0.13685369  0.13530260  0.70874940     0.13200
H355        H  0.02875637  0.06515880  0.62590674     0.13200
C356        C  0.02590766  0.10948645  0.67612509     0.62700
F357        F  0.16820850  0.11360806  0.68155649    -0.22500
F358        F  0.15104849  0.09726800  0.60543143    -0.19800
F359        F  0.13160686  0.06300296  0.66968348    -0.19500
F360        F  0.53530395  0.13715463  0.64708505    -0.19500
F361        F  0.01898483  0.11245974  0.72457537    -0.19800
F362        F  0.99651452  0.08494396  0.65716399    -0.22500
C363        C  0.05879817  0.09091439  0.81226243    -0.05300
C364        C  0.09053268  0.11863738  0.80754295     0.00600
C365        C  0.11739330  0.12339780  0.83781632    -0.08000
C366        C  0.11032681  0.10174829  0.87594128    -0.05400
C367        C  0.07774343  0.07513243  0.88366628     0.00600
C368        C  0.05174261  0.06879189  0.84989865    -0.07900
C369        C  0.01606503  0.04016389  0.85524743     0.62500
H370        H  0.03879970  0.08776868  0.78837834     0.13200
H371        H  0.13055014  0.10590697  0.90038678     0.13200
C372        C  0.15375975  0.15090233  0.83187193     0.62700
F373        F  0.49479609  0.03966554  0.82307208    -0.22500
F374        F  0.50422639  0.03860471  0.90339585    -0.19800
F375        F  0.01698498  0.01385881  0.84828977    -0.19500
F376        F  0.16245760  0.16841706  0.87357656    -0.19500
F377        F  0.15879765  0.16981107  0.79135265    -0.19800
F378        F  0.17538794  0.14018891  0.82629704    -0.22500
C379        C  0.12922624  0.20015522  0.64845380    -0.05300
C380        C  0.09988592  0.19274744  0.67581313     0.00600
C381        C  0.08511900  0.21060869  0.66743836    -0.08000
C382        C  0.10354913  0.23840980  0.63964684    -0.05400
C383        C  0.13597822  0.24871501  0.61935993     0.00600
C384        C  0.14681155  0.22735560  0.61846391    -0.07900
C385        C  0.17713656  0.23274111  0.58800649     0.62500
H386        H  0.14011064  0.18607572  0.65350468     0.13200
H387        H  0.09357326  0.25335915  0.63787581     0.13200
C388        C  0.05147007  0.20291492  0.69054921     0.62700
F389        F  0.16915424  0.20548329  0.56600920    -0.22500
F390        F  0.20455926  0.24194540  0.61805082    -0.19800
F391        F  0.18610432  0.25485382  0.55080325    -0.19500
F392        F  0.05729190  0.22523241  0.72397629    -0.19500
F393        F  0.03408581  0.17424528  0.71452281    -0.19800
F394        F  0.03089323  0.20286995  0.65412553    -0.22500
N395        N  0.09154188  0.65100566  0.73921650    -0.03000
C396        C  0.09627256  0.67951809  0.73112723    -0.00400
C397        C  0.10125212  0.69429935  0.77529317    -0.23300
C398        C  0.09979877  0.67466536  0.81159811    -0.23500
C399        C  0.09434793  0.64863652  0.78850708    -0.00500
H400        H  0.10723163  0.71767848  0.78021491     0.13200
H401        H  0.10342159  0.67922098  0.85047464     0.13300
N402        N  0.10736250  0.90538939  0.75225488    -0.03000
C403        C  0.12657554  0.89326066  0.74180722    -0.00400
C404        C  0.14224750  0.89163834  0.78360379    -0.23300
C405        C  0.13149489  0.90205511  0.82143678    -0.23500
C406        C  0.10923855  0.90931418  0.80168471    -0.00500
H407        H  0.15839235  0.88235601  0.78664648     0.13200
H408        H  0.13816311  0.90309026  0.85966194     0.13300
C409        C  0.16698604  0.83466503  0.61194913     0.80700
N410        N  0.20112431  0.84904698  0.61851536    -0.77600
C411        C  0.21654191  0.83263227  0.62001289     0.83100
N412        N  0.19704985  0.80126330  0.61579494    -0.77600
C413        C  0.16286328  0.78621468  0.60982624     0.83200
N414        N  0.14856115  0.80350547  0.60581134    -0.79300
N415        N  0.36093984  0.90842987  0.75367765    -0.03000
C416        C  0.32629332  0.89179036  0.75181933    -0.00400
C417        C  0.31212991  0.89250363  0.79640576    -0.23300
C418        C  0.33852370  0.90951840  0.82708640    -0.23500
C419        C  0.36819282  0.91945726  0.80007302    -0.00500
H420        H  0.28529965  0.88109454  0.80593060     0.13200
H421        H  0.33623717  0.91332695  0.86555540     0.13300
O422        O  0.08978366  0.57115856  0.97392356    -0.80500
O423        O  0.03410818  0.95395457  0.12019543    -0.65100
O424        O  0.07907498  0.51510239  0.01676160    -1.11700
C425        C  0.47721518  0.95520057  0.93174837     1.06400
O426        O  0.00501439  0.91281359  0.07316206    -0.78400
O427        O  0.02874500  0.92901389  0.97805889    -0.65900
Ni428      Ni  0.10443973  0.55849416  0.03094784     1.34900
C429        C  0.04419261  0.94758343  0.94156571     0.85200
O430        O  0.10049102  0.50273769  0.10633673    -0.78900
O431        O  0.12522048  0.55295639  0.08794336    -0.89200
C432        C  0.01688149  0.92479366  0.11441915     0.84700
O433        O  0.06896150  0.55657134  0.07020972    -0.67400
O434        O  0.47814997  0.93292686  0.95171344    -0.86700
C435        C  0.04962269  0.53719624  0.10389237     0.85600
C436        C  0.12401334  0.53089543  0.11233190     1.07100
H437        H  0.99864073  0.97143830  0.04941726     0.38900
O438        O  0.01450155  0.96804159  0.03179547    -1.09300
O439        O  0.04475618  0.97261284  0.93656262    -0.66000
Ni440      Ni  0.03423442  0.99707030  0.97770988     1.26300
O441        O  0.04582542  0.51050755  0.10901930    -0.66200
O442        O  0.49607490  0.98283206  0.94526590    -0.78500
C443        C  0.07552858  0.55849242  0.93407611     0.85000
O444        O  0.05763698  0.52952826  0.93021122    -0.65700
Ni445      Ni  0.99125407  0.92515209  0.01501316     1.27400
Ni446      Ni  0.05582828  0.98433943  0.06730782     1.26100
H447        H  0.09422350  0.51084385  0.99901230     0.39500
O448        O  0.01170845  0.90722176  0.48390717    -0.80500
O449        O  0.05536899  0.52557723  0.62293901    -0.65100
O450        O  0.01621043  0.96203092  0.51568616    -1.11700
C451        C  0.12153414  0.52514155  0.44155494     1.06400
O452        O  0.07635863  0.56316772  0.56525891    -0.78400
O453        O  0.06950736  0.55134639  0.46856586    -0.65900
Ni454      Ni  0.99044347  0.91876629  0.53330531     1.34900
C455        C  0.04805821  0.52998783  0.44156518     0.85200
O456        O  0.49549440  0.97614211  0.60309283    -0.78900
O457        O  0.46896401  0.92590903  0.58616168    -0.89200
C458        C  0.06835707  0.55390657  0.60993175     0.84700
O459        O  0.02061516  0.91939739  0.58113266    -0.67400
O460        O  0.12588194  0.54761936  0.46715945    -0.86700
C461        C  0.04088683  0.93987672  0.61036063     0.85600
C462        C  0.47061032  0.94811564  0.60940383     1.07100
H463        H  0.09116797  0.50646108  0.55264685     0.38900
O464        O  0.07508186  0.50985391  0.53608400    -1.09300
O465        O  0.04024140  0.50210654  0.44620590    -0.66000
Ni466      Ni  0.05685855  0.97672925  0.47723722     1.26300
O467        O  0.04814544  0.96779177  0.60828627    -0.66200
O468        O  0.09595320  0.49768457  0.44696707    -0.78500
C469        C  0.02032808  0.91758168  0.43977911     0.85000
O470        O  0.03451088  0.94610416  0.42930091    -0.65700
Ni471      Ni  0.09955261  0.55296459  0.51712831     1.27400
Ni472      Ni  0.03623490  0.99165048  0.56624700     1.26100
H473        H  0.00115020  0.96625073  0.49785878     0.39500
N474        N  0.22896629  0.55415539  0.25088021    -0.03000
C475        C  0.26317139  0.57016604  0.24219269    -0.00400
C476        C  0.27979441  0.56986213  0.28373970    -0.23300
C477        C  0.25525995  0.55390442  0.31980927    -0.23500
C478        C  0.22431279  0.54465410  0.29906277    -0.00500
H479        H  0.30704165  0.58193411  0.28824790     0.13200
H480        H  0.25975285  0.55166524  0.35819474     0.13300
N481        N  0.99775927  0.58505581  0.25034258    -0.03000
C482        C  0.47867901  0.60003519  0.24601516    -0.00400
C483        C  0.46310251  0.59914384  0.29026969    -0.23300
C484        C  0.97498532  0.58444380  0.32498002    -0.23500
C485        C  0.99436228  0.57609583  0.29887163    -0.00500
H486        H  0.44819830  0.60933085  0.29753739     0.13200
H487        H  0.96874634  0.58068187  0.36400613     0.13300
C488        C  0.43006399  0.65489305  0.11715830     0.80700
N489        N  0.39561519  0.63529089  0.11898093    -0.77600
C490        C  0.37464291  0.64623652  0.11463363     0.83100
N491        N  0.38872274  0.67727454  0.10797099    -0.77600
C492        C  0.42299686  0.69758836  0.10880071     0.83200
N493        N  0.44332816  0.68595831  0.11270611    -0.79300
N494        N  0.98691468  0.82480916  0.24815763    -0.03000
C495        C  0.97697855  0.79580153  0.23389007    -0.00400
C496        C  0.97376799  0.77749586  0.27435386    -0.23300
C497        C  0.98104158  0.79539008  0.31491056    -0.23500
C498        C  0.98816856  0.82397548  0.29797281    -0.00500
H499        H  0.96544062  0.75323081  0.27447256     0.13200
H500        H  0.98042400  0.78811035  0.35276053     0.13300
C501        C  0.41366179  0.73609553  0.14857125    -0.05300
C502        C  0.43637473  0.73019693  0.12385967     0.00600
C503        C  0.47167439  0.75339230  0.12392568    -0.08000
C504        C  0.98677720  0.77687665  0.15665036    -0.05400
C505        C  0.46067423  0.78022095  0.18826206     0.00600
C506        C  0.42518356  0.76048522  0.18143840    -0.07900
C507        C  0.39939059  0.76370264  0.21133422     0.62500
H508        H  0.38659597  0.71963428  0.14622592     0.13200
H509        H  0.01394642  0.79098174  0.16235601     0.13200
C510        C  0.99940111  0.74969555  0.09210263     0.62700
F511        F  0.36632335  0.74293124  0.19746561    -0.22500
F512        F  0.40576370  0.79319867  0.20419425    -0.19800
F513        F  0.40141515  0.75839436  0.26084462    -0.19500
F514        F  0.98402325  0.73058049  0.05287743    -0.19500
F515        F  0.01539829  0.73850610  0.12023319    -0.19800
F516        F  0.02370356  0.77870340  0.07275285    -0.22500
C517        C  0.45904028  0.60150063  0.16186276    -0.05300
C518        C  0.47755450  0.61779717  0.20286344     0.00600
C519        C  0.48675346  0.64911526  0.20761036    -0.08000
C520        C  0.47381176  0.66147721  0.17458875    -0.05400
C521        C  0.45149922  0.64380607  0.13764095     0.00600
C522        C  0.44627684  0.61425430  0.12848768    -0.07900
C523        C  0.42723539  0.59522029  0.08475613     0.62500
H524        H  0.45249401  0.57786008  0.15764259     0.13200
H525        H  0.47886582  0.68447275  0.18094529     0.13200
C526        C  0.01161833  0.67047643  0.24481320     0.62700
F527        F  0.44700985  0.58647056  0.06038701    -0.22500
F528        F  0.41980441  0.61139442  0.05125094    -0.19800
F529        F  0.39727287  0.56886936  0.10107772    -0.19500
F530        F  0.02403814  0.65785316  0.27706706    -0.19500
F531        F  0.99464924  0.68097383  0.27224722    -0.19800
F532        F  0.03916501  0.69558712  0.22051674    -0.22500
C533        C  0.29010560  0.57650458  0.16070872    -0.05300
C534        C  0.28214593  0.58999226  0.19867089     0.00600
C535        C  0.30038349  0.62273590  0.20116199    -0.08000
C536        C  0.32845686  0.64056242  0.16902305    -0.05400
C537        C  0.33906856  0.62689004  0.13475664     0.00600
C538        C  0.31785612  0.59453430  0.12774243    -0.07900
C539        C  0.32333264  0.57788509  0.08666761     0.62500
H540        H  0.27578339  0.55146058  0.15855327     0.13200
H541        H  0.34382613  0.66536458  0.17385608     0.13200
C542        C  0.29287823  0.64020543  0.23865485     0.62700
F543        F  0.29330196  0.56057572  0.06182314    -0.22500
F544        F  0.33227426  0.55811981  0.10647101    -0.19800
F545        F  0.34816177  0.59795456  0.05268970    -0.19500
F546        F  0.32089010  0.65699635  0.26770736    -0.19500
F547        F  0.26505387  0.62119077  0.26919362    -0.19800
F548        F  0.28661231  0.66056912  0.21396325    -0.22500
C549        C  0.02872662  0.87501527  0.33226439    -0.05300
C550        C  0.99529321  0.84939522  0.33077418     0.00600
C551        C  0.96992237  0.84715134  0.36326544    -0.08000
C552        C  0.97936798  0.87032606  0.39771927    -0.05400
C553        C  0.01297031  0.89552784  0.40031254     0.00600
C554        C  0.03816219  0.89834000  0.36672361    -0.07900
C555        C  0.07497864  0.92499596  0.36850624     0.62500
H556        H  0.04761516  0.87609157  0.30714615     0.13200
H557        H  0.46233038  0.87099655  0.42189897     0.13200
C558        C  0.43420249  0.82371549  0.35815324     0.62700
F559        F  0.09567488  0.92156437  0.33562982    -0.22500
F560        F  0.08709876  0.92650185  0.41527194    -0.19800
F561        F  0.07729172  0.95250022  0.35645368    -0.19500
F562        F  0.42956775  0.79576217  0.37376532    -0.19500
F563        F  0.42379056  0.82141509  0.31019919    -0.19800
F564        F  0.41341016  0.82924675  0.38723601    -0.22500
C565        C  0.15885335  0.51004583  0.40378549    -0.05300
C566        C  0.14736816  0.53048972  0.40360547     0.00600
C567        C  0.15856214  0.55339484  0.36532032    -0.08000
C568        C  0.18194220  0.55561984  0.32956597    -0.05400
C569        C  0.19387744  0.53549505  0.33024786    -0.01200
C570        C  0.18167272  0.51185604  0.36757800    -0.07900
C571        C  0.19206931  0.48826882  0.37186005     0.62500
H572        H  0.14994563  0.49239860  0.43291091     0.13200
H573        H  0.19233373  0.57418509  0.30198184     0.13200
C574        C  0.14500529  0.57457453  0.36078855     0.62700
F575        F  0.16323263  0.45876366  0.37594689    -0.22500
F576        F  0.21080692  0.49369188  0.41377872    -0.19800
F577        F  0.21111890  0.48899072  0.33184272    -0.19500
F578        F  0.15283337  0.59251295  0.40184016    -0.19500
F579        F  0.11014620  0.55666995  0.35608040    -0.19800
F580        F  0.15867618  0.59447459  0.31994784    -0.22500
C581        C  0.48656653  0.53228076  0.34732256    -0.05300
C582        C  0.01070007  0.56168242  0.32461959     0.00600
C583        C  0.04464843  0.57996187  0.34010339    -0.08000
C584        C  0.05538404  0.56837186  0.37807566    -0.05400
C585        C  0.03366243  0.53905959  0.40079596     0.00600
C586        C  0.49750169  0.52021200  0.38474036    -0.07900
C587        C  0.47256072  0.48816440  0.40699254     0.62500
H588        H  0.46052150  0.51895585  0.33533314     0.13200
H589        H  0.08107404  0.58260467  0.39101109     0.13200
C590        C  0.06917686  0.61210785  0.31802740     0.62700
F591        F  0.44051131  0.47515895  0.38747072    -0.22500
F592        F  0.46938495  0.49008811  0.45723234    -0.19800
F593        F  0.48769376  0.96995243  0.39860025    -0.19500
F594        F  0.10076770  0.62621133  0.33935896    -0.19500
F595        F  0.05634823  0.63082577  0.32470978    -0.19800
F596        F  0.07385271  0.60993928  0.26840227    -0.22500
C597        C  0.03503633  0.89442035  0.16158709    -0.05300
C598        C  0.01118793  0.90301619  0.15566201     0.00600
C599        C  0.98010067  0.88689075  0.18323690    -0.08000
C600        C  0.97330081  0.86162068  0.21416781    -0.05400
C601        C  0.99619835  0.85175469  0.21759912     0.00600
C602        C  0.02847156  0.86949799  0.19311195    -0.07900
C603        C  0.05708889  0.86373830  0.19928448     0.62500
H604        H  0.05889482  0.90699779  0.14062346     0.13200
H605        H  0.44745664  0.84641105  0.22717347     0.13200
C606        C  0.45217899  0.89246344  0.16809624     0.62700
F607        F  0.08601603  0.89083222  0.21339772    -0.22500
F608        F  0.06393255  0.85519773  0.15481184    -0.19800
F609        F  0.04986235  0.84095738  0.23435408    -0.19500
F610        F  0.44458237  0.88989781  0.11874085    -0.19500
F611        F  0.46388806  0.92233226  0.18212366    -0.19800
F612        F  0.42234793  0.87253277  0.19461949    -0.22500
C613        C  0.04309067  0.57919250  0.13724326    -0.05300
C614        C  0.03262742  0.54762560  0.13958431     0.00600
C615        C  0.00825767  0.52837593  0.17705689    -0.08000
C616        C  0.99667496  0.54172874  0.21082759    -0.05400
C617        C  0.00938357  0.57365944  0.21081548     0.00600
C618        C  0.03332643  0.59284301  0.17303278    -0.07900
C619        C  0.05114887  0.62782264  0.16983094     0.62500
H620        H  0.06102575  0.59420143  0.10846109     0.13200
H621        H  0.97780221  0.52724263  0.23891202     0.13200
C622        C  0.99439823  0.49397405  0.18247086     0.62700
F623        F  0.08525149  0.64103109  0.15732788    -0.22500
F624        F  0.04989670  0.63992946  0.21391025    -0.19800
F625        F  0.54409496  0.63773945  0.13390771    -0.19500
F626        F  0.02026467  0.48962521  0.19570905    -0.19500
F627        F  0.97963621  0.98469784  0.13186649    -0.19800
F628        F  0.96887505  0.47955966  0.21846715    -0.22500
C629        C  0.19969951  0.57277812  0.19980316    -0.05300
C630        C  0.20287925  0.54829246  0.21614058     0.00600
C631        C  0.18062106  0.51838384  0.19794384    -0.08000
C632        C  0.15533248  0.51387426  0.16481927    -0.05400
C633        C  0.15156026  0.53825625  0.14853481     0.00600
C634        C  0.17430602  0.56850501  0.16692459    -0.07900
C635        C  0.17206158  0.59643035  0.15326425     0.62500
H636        H  0.21721360  0.59542510  0.21374770     0.13200
H637        H  0.13815150  0.49085831  0.15147739     0.13200
C638        C  0.18286082  0.49092282  0.21398906     0.62700
F639        F  0.19411997  0.62215110  0.17992858    -0.22500
F640        F  0.13944099  0.58972183  0.16291995    -0.19800
F641        F  0.18058333  0.60436342  0.10395214    -0.19500
F642        F  0.16679284  0.47987880  0.25948301    -0.19500
F643        F  0.21643999  0.49931300  0.21682330    -0.19800
F644        F  0.16715273  0.46713481  0.18112553    -0.22500
C645        C  0.40567445  0.94865899  0.69919859    -0.05300
C646        C  0.38579772  0.91722315  0.71399831     0.00600
C647        C  0.39390516  0.89631561  0.69462554    -0.08000
C648        C  0.42164911  0.90779328  0.66109836    -0.05400
C649        C  0.44194749  0.93936667  0.64597447     0.00600
C650        C  0.43356165  0.96026844  0.66546324    -0.07900
C651        C  0.45341777  0.99452716  0.65107454     0.62500
H652        H  0.39931524  0.96420975  0.71545632     0.13200
H653        H  0.42768230  0.89167131  0.64643342     0.13200
C654        C  0.37389692  0.86202375  0.70910539     0.62700
F655        F  0.45361042  0.99822508  0.60050084    -0.22500
F656        F  0.98389607  0.00791158  0.66491917    -0.19800
F657        F  0.93652353  0.00914629  0.66861649    -0.19500
F658        F  0.34256748  0.84760517  0.68752685    -0.19500
F659        F  0.36943064  0.85774734  0.75955224    -0.19800
F660        F  0.39032553  0.84747754  0.69359635    -0.22500
C661        C  0.42115935  0.92140739  0.82018996    -0.05300
C662        C  0.40209158  0.93533183  0.82312062     0.00600
C663        C  0.41164254  0.95925951  0.85696312    -0.08000
C664        C  0.43638593  0.96502667  0.89149484    -0.05400
C665        C  0.45308918  0.94882888  0.89179125     0.00600
C666        C  0.44673313  0.92776800  0.85382143    -0.07900
C667        C  0.46641053  0.91180955  0.84853267     0.62500
H668        H  0.41440515  0.90381081  0.79363166     0.13200
H669        H  0.44217846  0.98199837  0.91931231     0.13200
C670        C  0.39585864  0.97870503  0.85890839     0.62700
F671        F  0.45943508  0.89610952  0.80495008    -0.22500
F672        F  0.45777423  0.89050512  0.88688321    -0.19800
F673        F  0.98823222  0.92060973  0.86156353    -0.19500
F674        F  0.37385178  0.96933702  0.89933570    -0.19500
F675        F  0.37838654  0.97650001  0.81678122    -0.19800
F676        F  0.42115611  0.00957678  0.86351752    -0.22500
C677        C  0.30484138  0.89063519  0.66820826    -0.05300
C678        C  0.30461280  0.87419537  0.71031207     0.00600
C679        C  0.27833564  0.84247427  0.71694737    -0.08000
C680        C  0.25154713  0.82938855  0.68404811    -0.05400
C681        C  0.25002912  0.84643111  0.64418168     0.00600
C682        C  0.27826032  0.87706652  0.63427072    -0.07900
C683        C  0.28163686  0.89649987  0.58916262     0.62500
H684        H  0.32503616  0.91478782  0.66303121     0.13200
H685        H  0.23040945  0.80588341  0.69171087     0.13200
C686        C  0.27615415  0.82147825  0.75920957     0.62700
F687        F  0.31339474  0.90839126  0.56701198    -0.22500
F688        F  0.27874283  0.92090106  0.60321120    -0.19800
F689        F  0.25749787  0.87970220  0.55454346    -0.19500
F690        F  0.24895631  0.81450202  0.79014998    -0.19500
F691        F  0.30524207  0.83437407  0.78649127    -0.19800
F692        F  0.27083635  0.79421158  0.74061558    -0.22500
C693        C  0.05559801  0.89655002  0.71375013    -0.05300
C694        C  0.09103058  0.91487325  0.71765669     0.00600
C695        C  0.10965736  0.94277659  0.68876508    -0.08000
C696        C  0.09229980  0.95004979  0.65441515    -0.05400
C697        C  0.05707388  0.93081147  0.64844541     0.00600
C698        C  0.03813903  0.90393926  0.67960768    -0.07900
C699        C  0.99956862  0.88370812  0.67824932     0.62500
H700        H  0.04169501  0.87626359  0.73779805     0.13200
H701        H  0.10656627  0.97107518  0.63173563     0.13200
C702        C  0.14741430  0.96642291  0.69352782     0.62700
F703        F  0.49004320  0.86124792  0.71318018    -0.22500
F704        F  0.49490762  0.86917071  0.63150708    -0.19800
F705        F  0.98583020  0.90190176  0.68224682    -0.19500
F706        F  0.16382606  0.97077593  0.64851021    -0.19500
F707        F  0.16279155  0.95805839  0.72815559    -0.19800
F708        F  0.15180713  0.99431038  0.70704522    -0.22500
C709        C  0.09728040  0.94843213  0.83026948    -0.05300
C710        C  0.08901856  0.91779699  0.83240096     0.00600
C711        C  0.06461244  0.89665167  0.86780348    -0.08000
C712        C  0.05108010  0.90761972  0.90238761    -0.05400
C713        C  0.06035033  0.93876997  0.90236527     0.00600
C714        C  0.08312433  0.95944861  0.86412865    -0.07900
C715        C  0.09303335  0.99298206  0.85838057     0.62500
H716        H  0.11575704  0.96390022  0.80239979     0.13200
H717        H  0.03290168  0.89156588  0.92999721     0.13200
C718        C  0.05230076  0.86238962  0.86866412     0.62700
F719        F  0.11662311  0.00867401  0.82030686    -0.22500
F720        F  0.10737604  0.00851009  0.90108408    -0.19800
F721        F  0.06456299  0.99395331  0.84783574    -0.19500
F722        F  0.07801208  0.85816866  0.88302684    -0.19500
F723        F  0.04202578  0.85072219  0.82232255    -0.19800
F724        F  0.02490787  0.84528197  0.90110890    -0.22500
C725        C  0.15386277  0.89644181  0.66120988    -0.05300
C726        C  0.12744795  0.87864951  0.69576665     0.00600
C727        C  0.10833993  0.84596534  0.69266534    -0.08000
C728        C  0.11967457  0.83209645  0.65998462    -0.05400
C729        C  0.14906936  0.84992941  0.62990834     0.00600
C730        C  0.16381669  0.88243683  0.62646822    -0.07900
C731        C  0.18972177  0.90307897  0.58690848     0.62500
H732        H  0.16790521  0.92145989  0.66267925     0.13200
H733        H  0.10730240  0.80716490  0.66130297     0.13200
C734        C  0.07724773  0.82572065  0.72581433     0.62700
F735        F  0.17932756  0.92124741  0.56478232    -0.22500
F736        F  0.19321161  0.88631031  0.55051640    -0.19800
F737        F  0.22087652  0.92219450  0.60785856    -0.19500
F738        F  0.05455619  0.83519204  0.72091654    -0.19500
F739        F  0.08653468  0.82793007  0.77438245    -0.19800
F740        F  0.06062485  0.79484165  0.71364818    -0.22500
C741        C  0.11108629  0.62092766  0.69722863    -0.05300
C742        C  0.08572342  0.62764618  0.70440351     0.00600
C743        C  0.05352550  0.60843454  0.68307054    -0.08000
C744        C  0.04809680  0.58348029  0.65433296    -0.05400
C745        C  0.07377386  0.57728097  0.64639939     0.00600
C746        C  0.10581475  0.59630637  0.66790345    -0.07900
C747        C  0.13438624  0.59072206  0.65894011     0.62500
H748        H  0.13519836  0.63537613  0.71474627     0.13200
H749        H  0.02406897  0.56920019  0.63642619     0.13200
C750        C  0.02528273  0.61467947  0.68947504     0.62700
F751        F  0.16297897  0.61058597  0.68518145    -0.22500
F752        F  0.14343623  0.59529071  0.60941370    -0.19800
F753        F  0.12367548  0.56061069  0.67310323    -0.19500
F754        F  0.52677619  0.63627382  0.66156147    -0.19500
F755        F  0.02060864  0.61843309  0.73855917    -0.19800
F756        F  0.99461156  0.59061208  0.67273209    -0.22500
C757        C  0.06020854  0.59534192  0.82218744    -0.05300
C758        C  0.09236651  0.62245310  0.81571855     0.00600
C759        C  0.11975615  0.62667043  0.84421699    -0.08000
C760        C  0.11313200  0.60487217  0.88185523    -0.05400
C761        C  0.08044558  0.57861439  0.89071091     0.00600
C762        C  0.05355857  0.57313556  0.85943673    -0.07900
C763        C  0.01754647  0.54524849  0.86708050     0.62500
H764        H  0.03973568  0.59269830  0.79991936     0.13200
H765        H  0.13378625  0.60859449  0.90499310     0.13200
C766        C  0.15610630  0.65410699  0.83739720     0.62700
F767        F  0.48870724  0.53654025  0.82921816    -0.22500
F768        F  0.49789605  0.53405798  0.90928758    -0.19800
F769        F  0.01679857  0.51847139  0.85681140    -0.19500
F770        F  0.16451572  0.67288433  0.87752494    -0.19500
F771        F  0.16110201  0.67166119  0.79507708    -0.19800
F772        F  0.17798622  0.64352088  0.83435824    -0.22500
C773        C  0.13311786  0.70409061  0.65713013    -0.05300
C774        C  0.10369193  0.69715033  0.68382236     0.00600
C775        C  0.08959001  0.71548702  0.67487681    -0.08000
C776        C  0.10795132  0.74247522  0.64516946    -0.05400
C777        C  0.14052452  0.75257267  0.62538563     0.00600
C778        C  0.15176657  0.73147080  0.62750570    -0.07900
C779        C  0.18396753  0.73797397  0.60109464     0.62500
H780        H  0.14365708  0.68987522  0.66387505     0.13200
H781        H  0.09765313  0.75706815  0.64133049     0.13200
C782        C  0.05661187  0.70919280  0.69871718     0.62700
F783        F  0.18328162  0.71082050  0.59414271    -0.22500
F784        F  0.21200999  0.75730841  0.62858261    -0.19800
F785        F  0.18717694  0.75162594  0.55521570    -0.19500
F786        F  0.06351070  0.73364204  0.72808228    -0.19500
F787        F  0.03994758  0.68222796  0.72737475    -0.19800
F788        F  0.03483175  0.70676030  0.66230920    -0.22500
N789        N  0.58919909  0.14803484  0.72935991    -0.03000
C790        C  0.59158320  0.17558052  0.72065938    -0.00400
C791        C  0.59304619  0.18923537  0.76489744    -0.23300
C792        C  0.59190245  0.16997851  0.80173133    -0.23500
C793        C  0.58996980  0.14519111  0.77904148    -0.00500
H794        H  0.59677723  0.21185054  0.76971651     0.13200
H795        H  0.59345302  0.17405719  0.84080492     0.13300
N796        N  0.61065652  0.40792982  0.75310016    -0.03000
C797        C  0.62972733  0.39534413  0.74421105    -0.00400
C798        C  0.64243253  0.39167654  0.78777653    -0.23300
C799        C  0.62976912  0.40097586  0.82481490    -0.23500
C800        C  0.60986528  0.41025727  0.80276756    -0.00500
H801        H  0.65741223  0.38130600  0.79242498     0.13200
H802        H  0.63324683  0.39962684  0.86386768     0.13300
C803        C  0.67013257  0.33463439  0.61544093     0.80700
N804        N  0.70392584  0.34701435  0.62231557    -0.77600
C805        C  0.71740894  0.32900721  0.62235638     0.83100
N806        N  0.69648257  0.29804308  0.61599147    -0.77600
C807        C  0.66265270  0.28486218  0.60867905     0.83200
N808        N  0.64996396  0.30361879  0.60765964    -0.79300
N809        N  0.85762094  0.40318041  0.76114742    -0.03000
C810        C  0.82316879  0.38537980  0.75807701    -0.00400
C811        C  0.80799066  0.38597875  0.80177585    -0.23300
C812        C  0.83375598  0.40424063  0.83292526    -0.23500
C813        C  0.86404991  0.41488860  0.80712080    -0.00500
H814        H  0.78097719  0.37395925  0.81032895     0.13200
H815        H  0.83065787  0.40843799  0.87089426     0.13300
O816        O  0.58862552  0.07055361  0.96797286    -0.80500
O817        O  0.53296233  0.45227990  0.12377606    -0.65100
O818        O  0.57947303  0.01481961  0.01203133    -1.11700
C819        C  0.97504209  0.45502886  0.93789879     1.06400
O820        O  0.50685082  0.41160454  0.07513188    -0.78400
O821        O  0.52920187  0.42831291  0.97966601    -0.65900
Ni822      Ni  0.60530742  0.05847669  0.02382151     1.34900
C823        C  0.54468788  0.44749720  0.94389062     0.85200
O824        O  0.60124510  0.00337166  0.10204507    -0.78900
O825        O  0.62783258  0.05324881  0.07880246    -0.89200
C826        C  0.51751964  0.42328025  0.11696589     0.84700
O827        O  0.57165965  0.05764311  0.06614477    -0.67400
O828        O  0.97493494  0.43252119  0.95922392    -0.86700
C829        C  0.55214875  0.03852640  0.10001000     0.85600
C830        C  0.62598418  0.03146777  0.10502237     1.07100
H831        H  0.49689372  0.46870460  0.05250849     0.38900
O832        O  0.51349322  0.46613132  0.03524743    -1.09300
O833        O  0.54542006  0.47270804  0.94045915    -0.66000
Ni834      Ni  0.53295258  0.49579760  0.98199333     1.26300
O835        O  0.54690190  0.01126943  0.10462534    -0.66200
O836        O  0.99542921  0.48299579  0.94909282    -0.78500
C837        C  0.57502799  0.05755436  0.92790543     0.85000
O838        O  0.55828891  0.02855420  0.92468876    -0.65700
Ni839      Ni  0.49167501  0.42340186  0.01782507     1.27400
Ni840      Ni  0.55433700  0.48347518  0.07211403     1.26100
H841        H  0.59441116  0.01014767  0.99471792     0.39500
O842        O  0.51045821  0.40931250  0.48996991    -0.80500
O843        O  0.55882442  0.02504378  0.61357043    -0.65100
O844        O  0.51242138  0.46246870  0.52507040    -1.11700
C845        C  0.62318751  0.01944355  0.42936107     1.06400
O846        O  0.59285019  0.06480783  0.56194649    -0.78400
O847        O  0.57167511  0.04894244  0.46890781    -0.65900
Ni848      Ni  0.48870875  0.41914303  0.54126176     1.34900
C849        C  0.55342861  0.02925461  0.43724714     0.85200
O850        O  0.99282133  0.47395407  0.61549449    -0.78900
O851        O  0.96737505  0.42408178  0.59549653    -0.89200
C852        C  0.57756250  0.05396031  0.60329911     0.84700
O853        O  0.52036876  0.42081078  0.58709003    -0.67400
O854        O  0.62566995  0.04280865  0.44949476    -0.86700
C855        C  0.54108372  0.44146094  0.61568657     0.85600
C856        C  0.96845378  0.44561450  0.62013664     1.07100
H857        H  0.59483177  0.00336806  0.54703354     0.38900
O858        O  0.57992816  0.00761136  0.52886824    -1.09300
O859        O  0.54871198  0.00227150  0.43636201    -0.66000
Ni860      Ni  0.55248928  0.47917205  0.48464525     1.26300
O861        O  0.54746151  0.46911012  0.61483752    -0.66200
O862        O  0.60081982  0.99191676  0.44277102    -0.78500
C863        C  0.51854878  0.42025302  0.44604013     0.85000
O864        O  0.53077759  0.44859518  0.43655214    -0.65700
Ni865      Ni  0.60656077  0.05044435  0.50700465     1.27400
Ni866      Ni  0.53254068  0.49190276  0.57598789     1.26100
H867        H  0.49632139  0.46600921  0.50885310     0.39500
N868        N  0.73353294  0.05555639  0.23895138    -0.03000
C869        C  0.76790286  0.07257613  0.23142318    -0.00400
C870        C  0.78412669  0.07208783  0.27332175    -0.23300
C871        C  0.75921439  0.05504520  0.30843320    -0.23500
C872        C  0.72838172  0.04517126  0.28676889    -0.00500
H873        H  0.81130911  0.08472118  0.27874666     0.13200
H874        H  0.76329641  0.05226702  0.34679020     0.13300
N875        N  0.50672377  0.08970567  0.24974927    -0.03000
C876        C  0.99441390  0.10985345  0.24544704    -0.00400
C877        C  0.98283202  0.11175441  0.29156866    -0.23300
C878        C  0.48783386  0.09172346  0.32592540    -0.23500
C879        C  0.50457337  0.08126076  0.29824033    -0.00500
H880        H  0.97032223  0.12391829  0.30077683     0.13200
H881        H  0.48284934  0.08862159  0.36528071     0.13300
C882        C  0.93793762  0.15921956  0.11778991     0.80700
N883        N  0.90335505  0.14010067  0.11873492    -0.77600
C884        C  0.88299394  0.15171794  0.11358151     0.83100
N885        N  0.89776167  0.18297576  0.10914433    -0.77600
C886        C  0.93208856  0.20267941  0.11112543     0.83200
N887        N  0.95178899  0.19038068  0.11347217    -0.79300
N888        N  0.49416561  0.32753253  0.25641171    -0.03000
C889        C  0.48841482  0.29941641  0.24420850    -0.00400
C890        C  0.49157577  0.28464415  0.28504507    -0.23300
C891        C  0.49818404  0.30363754  0.32396923    -0.23500
C892        C  0.49846878  0.32922777  0.30574452    -0.00500
H893        H  0.48724184  0.26159092  0.28690630     0.13200
H894        H  0.50120767  0.29877767  0.36182195     0.13300
C895        C  0.92472399  0.23923060  0.16059184    -0.05300
C896        C  0.94611720  0.23461720  0.12980636     0.00600
C897        C  0.98134301  0.25805416  0.12692413    -0.08000
C898        C  0.49347875  0.27976884  0.16413739    -0.05400
C899        C  0.97362278  0.28364627  0.19683087     0.00600
C900        C  0.93785793  0.26312474  0.19459892    -0.07900
C901        C  0.91363607  0.26515177  0.23013216     0.62500
H902        H  0.89768157  0.22226411  0.16140457     0.13200
H903        H  0.52083870  0.29547327  0.16568024     0.13200
C904        C  0.50438479  0.25485440  0.09377556     0.62700
F905        F  0.87989206  0.24320672  0.22122439    -0.22500
F906        F  0.91802132  0.29403138  0.22506736    -0.19800
F907        F  0.91986162  0.26047822  0.27807304    -0.19500
F908        F  0.48774475  0.23716852  0.05368742    -0.19500
F909        F  0.52129843  0.24279583  0.11718659    -0.19800
F910        F  0.52808963  0.28452204  0.07611611    -0.22500
C911        C  0.96812771  0.10666610  0.16500509    -0.05300
C912        C  0.98999304  0.12523770  0.20185457     0.00600
C913        C  0.99988824  0.15683697  0.20304668    -0.08000
C914        C  0.98440000  0.16742290  0.17140617    -0.05400
C915        C  0.95926232  0.14789995  0.13856210     0.00600
C916        C  0.95307298  0.11766149  0.13246154    -0.07900
C917        C  0.93118041  0.09604027  0.09275865     0.62500
H918        H  0.96107038  0.08273291  0.16344453     0.13200
H919        H  0.99050498  0.19094863  0.17537578     0.13200
C920        C  0.52138059  0.17668228  0.24384980     0.62700
F921        F  0.94962191  0.08634065  0.06709603    -0.22500
F922        F  0.92091198  0.10986917  0.05909238    -0.19800
F923        F  0.90279072  0.07037257  0.11440760    -0.19500
F924        F  0.53671979  0.16539642  0.27305821    -0.19500
F925        F  0.50413473  0.18550627  0.27437188    -0.19800
F926        F  0.54688174  0.20267616  0.21829912    -0.22500
C927        C  0.79647058  0.08127281  0.15042296    -0.05300
C928        C  0.78738933  0.09353206  0.18906560     0.00600
C929        C  0.80553141  0.12613789  0.19404187    -0.08000
C930        C  0.83461067  0.14487475  0.16407190    -0.05400
C931        C  0.84650007  0.13220925  0.12994284     0.00600
C932        C  0.82530935  0.10030448  0.11968397    -0.07900
C933        C  0.83222960  0.08534413  0.07744461     0.62500
H934        H  0.78224242  0.05637911  0.14616334     0.13200
H935        H  0.84980806  0.16943481  0.17093121     0.13200
C936        C  0.79703000  0.14244019  0.23245647     0.62700
F937        F  0.80268786  0.06771560  0.05165375    -0.22500
F938        F  0.84241911  0.06618560  0.09577269    -0.19800
F939        F  0.85689711  0.10692980  0.04465223    -0.19500
F940        F  0.82450919  0.15877420  0.26263898    -0.19500
F941        F  0.76882329  0.12249923  0.26173959    -0.19800
F942        F  0.79074257  0.16309292  0.20885026    -0.22500
C943        C  0.53108435  0.38318018  0.33366013    -0.05300
C944        C  0.50123586  0.35375376  0.33715116     0.00600
C945        C  0.47586588  0.34733449  0.37333107    -0.08000
C946        C  0.48263320  0.37006546  0.40750001    -0.05400
C947        C  0.51320931  0.39905654  0.40577313     0.00600
C948        C  0.53752809  0.40628578  0.36720512    -0.07900
C949        C  0.57088918  0.43740388  0.36288838     0.62500
H950        H  0.54989733  0.38750520  0.30547816     0.13200
H951        H  0.96679262  0.36698792  0.43386115     0.13200
C952        C  0.94414302  0.31971748  0.37062497     0.62700
F953        F  0.59172388  0.43846503  0.32498895    -0.22500
F954        F  0.58816542  0.44284978  0.40625883    -0.19800
F955        F  0.56466688  0.46066239  0.35351054    -0.19500
F956        F  0.94611247  0.29432136  0.38276634    -0.19500
F957        F  0.93072372  0.31617433  0.32439092    -0.19800
F958        F  0.92177116  0.32029304  0.40407944    -0.22500
C959        C  0.66189389  0.00616239  0.38996306    -0.05300
C960        C  0.64757591  0.02439072  0.38904375     0.00600
C961        C  0.65629946  0.04612693  0.34945818    -0.08000
C962        C  0.68115975  0.05053429  0.31454492    -0.05400
C963        C  0.69670759  0.03337045  0.31679691    -0.01200
C964        C  0.68600570  0.00992033  0.35421076    -0.07900
C965        C  0.69951285  0.98867105  0.35910073     0.62500
H966        H  0.65455841  0.98902591  0.41956242     0.13200
H967        H  0.69012464  0.06894833  0.28693944     0.13200
C968        C  0.63902878  0.06412965  0.34305524     0.62700
F969        F  0.67247340  0.95828604  0.36468550    -0.22500
F970        F  0.71923778  0.99628598  0.40039794    -0.19800
F971        F  0.71873772  0.99029945  0.31861034    -0.19500
F972        F  0.64786858  0.08489791  0.38039783    -0.19500
F973        F  0.60418666  0.04359405  0.34373645    -0.19800
F974        F  0.64821266  0.08079025  0.29871211    -0.22500
C975        C  0.99740541  0.03756379  0.34089719    -0.05300
C976        C  0.51938249  0.06494343  0.32217804     0.00600
C977        C  0.55361697  0.08151044  0.33694474    -0.08000
C978        C  0.56322704  0.06871381  0.37456412    -0.05400
C979        C  0.54015481  0.03973641  0.39711138     0.00600
C980        C  0.00675493  0.02372387  0.37764672    -0.07900
C981        C  0.97998499  0.99242765  0.40033196     0.62500
H982        H  0.97125622  0.02598577  0.32940574     0.13200
H983        H  0.58910099  0.08154999  0.38721027     0.13200
C984        C  0.57977257  0.11294447  0.31408606     0.62700
F985        F  0.94830382  0.98125391  0.38050878    -0.22500
F986        F  0.97715692  0.99515093  0.45041728    -0.19800
F987        F  0.98425046  0.46819111  0.40013123    -0.19500
F988        F  0.61139250  0.12535142  0.33481940    -0.19500
F989        F  0.56944964  0.13358699  0.32043952    -0.19800
F990        F  0.58351083  0.10978816  0.26453608    -0.22500
C991        C  0.53817599  0.39540454  0.16567664    -0.05300
C992        C  0.51260611  0.40161147  0.15793143     0.00600
C993        C  0.48148980  0.38440919  0.18514830    -0.08000
C994        C  0.47654573  0.36061363  0.21820534    -0.05400
C995        C  0.50122475  0.35293582  0.22345598     0.00600
C996        C  0.53334577  0.37169180  0.19864301    -0.07900
C997        C  0.56383148  0.36869773  0.20620808     0.62500
H998        H  0.56212416  0.40899669  0.14514888     0.13200
H999        H  0.95719199  0.35039230  0.23897438     0.13200
C1000       C  0.95868741  0.39476044  0.17850772     0.62700
F1001       F  0.59073352  0.39659331  0.22213237    -0.22500
F1002       F  0.57324169  0.36209686  0.16193901    -0.19800
F1003       F  0.55798067  0.34598013  0.24048291    -0.19500
F1004       F  0.94738802  0.39007782  0.13075538    -0.19500
F1005       F  0.97239070  0.42543913  0.18944271    -0.19800
F1006       F  0.93094578  0.37675533  0.20995176    -0.22500
C1007       C  0.55049780  0.08228243  0.13673257    -0.05300
C1008       C  0.53684577  0.05002918  0.13668633     0.00600
C1009       C  0.51100753  0.03103475  0.17272786    -0.08000
C1010       C  0.50112630  0.04523245  0.20754533    -0.05400
C1011       C  0.51661631  0.07752788  0.20942741     0.00600
C1012       C  0.54195645  0.09647547  0.17315964    -0.07900
C1013       C  0.56215433  0.13161263  0.17241416     0.62500
H1014       H  0.56977189  0.09717827  0.10926173     0.13200
H1015       H  0.48146121  0.03113425  0.23497698     0.13200
C1016       C  0.49373559  0.99603094  0.17541651     0.62700
F1017       F  0.59593852  0.14317557  0.15985159    -0.22500
F1018       F  0.56177968  0.14307196  0.21760066    -0.19800
F1019       F  0.05038121  0.14358259  0.13644919    -0.19500
F1020       F  0.51699703  0.98829847  0.18874332    -0.19500
F1021       F  0.47573222  0.47894329  0.13830788    -0.19800
F1022       F  0.46719215  0.98233468  0.20997047    -0.22500
C1023       C  0.70444660  0.07421410  0.18746236    -0.05300
C1024       C  0.70760731  0.04972017  0.20390561     0.00600
C1025       C  0.68456360  0.01958639  0.18710369    -0.08000
C1026       C  0.65825749  0.01477396  0.15586273    -0.05400
C1027       C  0.65445169  0.03911952  0.13959213     0.00600
C1028       C  0.67819587  0.06966961  0.15609255    -0.07900
C1029       C  0.67604831  0.09760937  0.14209991     0.62500
H1030       H  0.72251221  0.09702264  0.20046881     0.13200
H1031       H  0.64043210  0.99156813  0.14375691     0.13200
C1032       C  0.68723604  0.99221340  0.20216469     0.62700
F1033       F  0.69889878  0.12364542  0.16751258    -0.22500
F1034       F  0.64374744  0.09136323  0.15299946    -0.19800
F1035       F  0.68356931  0.10478281  0.09242260    -0.19500
F1036       F  0.67111877  0.98044950  0.24745462    -0.19500
F1037       F  0.72092600  0.00090839  0.20481016    -0.19800
F1038       F  0.67187793  0.96887298  0.16850302    -0.22500
C1039       C  0.89994164  0.44311765  0.70443007    -0.05300
C1040       C  0.88277865  0.41230535  0.72217901     0.00600
C1041       C  0.89345764  0.39253731  0.70619852    -0.08000
C1042       C  0.92188863  0.40484011  0.67392324    -0.05400
C1043       C  0.93961941  0.43591386  0.65617181     0.00600
C1044       C  0.92799228  0.45536329  0.67116648    -0.07900
C1045       C  0.94455376  0.48870229  0.65244579     0.62500
H1046       H  0.89130704  0.45768554  0.71793457     0.13200
H1047       H  0.93032851  0.38983868  0.66195269     0.13200
C1048       C  0.87508056  0.35856457  0.72246372     0.62700
F1049       F  0.94675164  0.49008765  0.60155971    -0.22500
F1050       F  0.47980469  0.50441479  0.68008016    -0.19800
F1051       F  0.43198150  0.50496142  0.68131272    -0.19500
F1052       F  0.84488454  0.34211475  0.69797474    -0.19500
F1053       F  0.86817895  0.35479910  0.77253992    -0.19800
F1054       F  0.89430496  0.34585223  0.71186723    -0.22500
C1055       C  0.91873210  0.41985839  0.82727497    -0.05300
C1056       C  0.89789721  0.43196953  0.83080915     0.00600
C1057       C  0.90657216  0.45586411  0.86447988    -0.08000
C1058       C  0.93202688  0.46292093  0.89876369    -0.05400
C1059       C  0.95039842  0.44823356  0.89840590     0.00600
C1060       C  0.94524024  0.42788864  0.85989036    -0.07900
C1061       C  0.96742543  0.41456151  0.85275119     0.62500
H1062       H  0.91299808  0.40246768  0.80087121     0.13200
H1063       H  0.93729897  0.47982088  0.92648557     0.13200
C1064       C  0.88983211  0.47451197  0.86541997     0.62700
F1065       F  0.96229308  0.40065567  0.80771435    -0.22500
F1066       F  0.96011508  0.39251504  0.88930368    -0.19800
F1067       F  0.49200897  0.42549813  0.85758830    -0.19500
F1068       F  0.86785531  0.46521957  0.90585263    -0.19500
F1069       F  0.87207489  0.47127633  0.82313916    -0.19800
F1070       F  0.91451765  0.50565993  0.86901429    -0.22500
C1071       C  0.80555820  0.38353783  0.67139806    -0.05300
C1072       C  0.80296700  0.36751159  0.71548896     0.00600
C1073       C  0.77604596  0.33600725  0.72179947    -0.08000
C1074       C  0.74989820  0.32338974  0.68780606    -0.05400
C1075       C  0.75030767  0.34062694  0.64675385     0.00600
C1076       C  0.77994408  0.37017533  0.63603239    -0.07900
C1077       C  0.78580090  0.38827377  0.58815850     0.62500
H1078       H  0.82667798  0.40725671  0.66565864     0.13200
H1079       H  0.72783039  0.30033255  0.69534120     0.13200
C1080       C  0.77264619  0.31496558  0.76473480     0.62700
F1081       F  0.81650867  0.39554388  0.56683304    -0.22500
F1082       F  0.78728841  0.41548037  0.59754129    -0.19800
F1083       F  0.76068937  0.37181697  0.55453806    -0.19500
F1084       F  0.74538414  0.30886003  0.79479774    -0.19500
F1085       F  0.80147896  0.32747655  0.79256711    -0.19800
F1086       F  0.76665390  0.28727598  0.74700016    -0.22500
C1087       C  0.55835372  0.39876664  0.71651164    -0.05300
C1088       C  0.59393960  0.41674672  0.71811513     0.00600
C1089       C  0.61200162  0.44444755  0.68868383    -0.08000
C1090       C  0.59389646  0.45157314  0.65547098    -0.05400
C1091       C  0.55842374  0.43260522  0.65191298     0.00600
C1092       C  0.54014291  0.40601478  0.68375588    -0.07900
C1093       C  0.50149689  0.38587973  0.68451840     0.62500
H1094       H  0.54489079  0.37899327  0.74170488     0.13200
H1095       H  0.60766417  0.47239849  0.63224137     0.13200
C1096       C  0.64981487  0.46814384  0.69225310     0.62700
F1097       F  0.99303923  0.37124339  0.73286419    -0.22500
F1098       F  0.99185597  0.37558527  0.65098751    -0.19800
F1099       F  0.48798528  0.40419574  0.68955286    -0.19500
F1100       F  0.66580193  0.47101375  0.64742578    -0.19500
F1101       F  0.66529164  0.46071306  0.72813642    -0.19800
F1102       F  0.65451811  0.49652798  0.70326594    -0.22500
C1103       C  0.59750717  0.44918823  0.83123275    -0.05300
C1104       C  0.58833376  0.41824103  0.83150343     0.00600
C1105       C  0.56296900  0.39676869  0.86557294    -0.08000
C1106       C  0.55046986  0.40768010  0.90177692    -0.05400
C1107       C  0.56057151  0.43901220  0.90364674     0.00600
C1108       C  0.58357038  0.46002910  0.86594833    -0.07900
C1109       C  0.59400869  0.49374441  0.86189574     0.62500
H1110       H  0.61666835  0.46505740  0.80440310     0.13200
H1111       H  0.53182549  0.39101596  0.92846262     0.13200
C1112       C  0.54805246  0.36207205  0.86552620     0.62700
F1113       F  0.61781335  0.50984516  0.82422487    -0.22500
F1114       F  0.60828119  0.50838679  0.90524670    -0.19800
F1115       F  0.56583267  0.49532829  0.85197369    -0.19500
F1116       F  0.55857067  0.35337160  0.90666333    -0.19500
F1117       F  0.55731235  0.35279862  0.82407270    -0.19800
F1118       F  0.51287042  0.34655374  0.86713567    -0.22500
C1119       C  0.66157907  0.39895892  0.66767532    -0.05300
C1120       C  0.63246264  0.38141800  0.69812258     0.00600
C1121       C  0.61188832  0.34894450  0.69197934    -0.08000
C1122       C  0.62295136  0.33484874  0.65921050    -0.05400
C1123       C  0.65428985  0.35193707  0.63322948     0.00600
C1124       C  0.67216527  0.38484540  0.63389218    -0.07900
C1125       C  0.70306448  0.40586439  0.60113282     0.62500
H1126       H  0.67730585  0.42377385  0.67217884     0.13200
H1127       H  0.60872385  0.30983053  0.65795093     0.13200
C1128       C  0.58011334  0.32860034  0.72366583     0.62700
F1129       F  0.70089359  0.43019217  0.58253028    -0.22500
F1130       F  0.70552967  0.39052930  0.56145006    -0.19800
F1131       F  0.73210115  0.41775850  0.62848283    -0.19500
F1132       F  0.55944060  0.34038867  0.72245712    -0.19500
F1133       F  0.58902083  0.32746950  0.77162198    -0.19800
F1134       F  0.56143304  0.29858483  0.70724486    -0.22500
C1135       C  0.61364602  0.12077362  0.69126413    -0.05300
C1136       C  0.58672459  0.12572743  0.69487026     0.00600
C1137       C  0.55603350  0.10559173  0.67056089    -0.08000
C1138       C  0.55344606  0.08126390  0.64325471    -0.05400
C1139       C  0.58056698  0.07674513  0.63900312     0.00600
C1140       C  0.61129944  0.09683537  0.66304999    -0.07900
C1141       C  0.64129341  0.09276035  0.65905440     0.62500
H1142       H  0.63659704  0.13597259  0.71084260     0.13200
H1143       H  0.53057820  0.06621641  0.62327207     0.13200
C1144       C  0.52634339  0.11006482  0.67247788     0.62700
F1145       F  0.66755497  0.11278977  0.68889137    -0.22500
F1146       F  0.65369619  0.09854295  0.61099002    -0.19800
F1147       F  0.63105263  0.06274612  0.67309882    -0.19500
F1148       F  0.03427371  0.13597291  0.64925985    -0.19500
F1149       F  0.51773639  0.11157271  0.72073937    -0.19800
F1150       F  0.49779952  0.08603678  0.65092477    -0.22500
C1151       C  0.55807732  0.09179677  0.81331734    -0.05300
C1152       C  0.58941009  0.11979842  0.80708304     0.00600
C1153       C  0.61712076  0.12526472  0.83606055    -0.08000
C1154       C  0.61130304  0.10412842  0.87458490    -0.05400
C1155       C  0.57922104  0.07709978  0.88363907     0.00600
C1156       C  0.55242684  0.06996024  0.85082322    -0.07900
C1157       C  0.51743673  0.04051117  0.85667318     0.62500
H1158       H  0.53740474  0.08803094  0.79034788     0.13200
H1159       H  0.63219281  0.10889724  0.89804677     0.13200
C1160       C  0.65324450  0.15283679  0.82797345     0.62700
F1161       F  0.99432175  0.04032466  0.82099445    -0.22500
F1162       F  0.00271445  0.03886391  0.90162096    -0.19800
F1163       F  0.51980896  0.01500725  0.84908658    -0.19500
F1164       F  0.66322752  0.17068662  0.86934697    -0.19500
F1165       F  0.65695095  0.17143651  0.78769418    -0.19800
F1166       F  0.67476245  0.14217473  0.82039480    -0.22500
C1167       C  0.63127313  0.20189189  0.64953021    -0.05300
C1168       C  0.60069066  0.19400997  0.67366686     0.00600
C1169       C  0.58612370  0.21176748  0.66241920    -0.08000
C1170       C  0.60554858  0.23975479  0.63509427    -0.05400
C1171       C  0.63896711  0.25058045  0.61850035     0.00600
C1172       C  0.65008908  0.22938887  0.62035366    -0.07900
C1173       C  0.68240008  0.23573742  0.59458236     0.62500
H1174       H  0.64212850  0.18800122  0.65696510     0.13200
H1175       H  0.59532242  0.25439844  0.63064771     0.13200
C1176       C  0.55111238  0.20339702  0.68076357     0.62700
F1177       F  0.67838774  0.20828802  0.57916130    -0.22500
F1178       F  0.70909815  0.24935867  0.62665700    -0.19800
F1179       F  0.69014820  0.25483400  0.55325516    -0.19500
F1180       F  0.55426379  0.22671334  0.70980686    -0.19500
F1181       F  0.53391459  0.17584526  0.70792070    -0.19800
F1182       F  0.53164794  0.20059087  0.64072184    -0.22500
N1183       N  0.58197307  0.64673828  0.73970971    -0.03000
C1184       C  0.58625812  0.67506141  0.73148387    -0.00400
C1185       C  0.58864841  0.68885736  0.77595613    -0.23300
C1186       C  0.58602975  0.66879094  0.81245395    -0.23500
C1187       C  0.58250898  0.64349294  0.78926919    -0.00500
H1188       H  0.59405737  0.71202581  0.78117910     0.13200
H1189       H  0.58819416  0.67283711  0.85155142     0.13300
N1190       N  0.61110632  0.90691173  0.75201170    -0.03000
C1191       C  0.62965031  0.89413744  0.74140747    -0.00400
C1192       C  0.64624733  0.89323517  0.78263432    -0.23300
C1193       C  0.63672134  0.90471886  0.82037353    -0.23500
C1194       C  0.61438205  0.91201872  0.80110211    -0.00500
H1195       H  0.66215510  0.88369420  0.78545295     0.13200
H1196       H  0.64408477  0.90627587  0.85833532     0.13300
C1197       C  0.66730279  0.83213739  0.61341965     0.80700
N1198       N  0.70122358  0.84510933  0.61981542    -0.77600
C1199       C  0.71514872  0.82745620  0.62114410     0.83100
N1200       N  0.69425626  0.79610446  0.61796527    -0.77600
C1201       C  0.66021183  0.78241917  0.61161438     0.83200
N1202       N  0.64753840  0.80103100  0.60709784    -0.79300
N1203       N  0.85872561  0.90822898  0.75314168    -0.03000
C1204       C  0.82412128  0.89086553  0.75026997    -0.00400
C1205       C  0.80917225  0.89294099  0.79310877    -0.23300
C1206       C  0.83501512  0.91099712  0.82408606    -0.23500
C1207       C  0.86509870  0.92023034  0.79881737    -0.00500
H1208       H  0.78219159  0.88122538  0.80176504     0.13200
H1209       H  0.83200652  0.91512057  0.86212411     0.13300
O1210       O  0.58179065  0.56746920  0.97465295    -0.80500
O1211       O  0.53739682  0.95473017  0.11933553    -0.65100
O1212       O  0.57437187  0.51229599  0.01705490    -1.11700
C1213       C  0.97204513  0.95333019  0.93453658     1.06400
O1214       O  0.50764033  0.91392763  0.07163465    -0.78400
O1215       O  0.53437298  0.93169531  0.97806600    -0.65900
Ni1216     Ni  0.59958451  0.55590244  0.02940425     1.34900
C1217       C  0.54976519  0.95033477  0.94164772     0.85200
O1218       O  0.59597141  0.50119586  0.10745039    -0.78900
O1219       O  0.62274262  0.55104109  0.08385141    -0.89200
C1220       C  0.51937401  0.92554711  0.11311448     0.84700
O1221       O  0.56609160  0.55465775  0.07246288    -0.67400
O1222       O  0.97232306  0.93103171  0.95580633    -0.86700
C1223       C  0.54610453  0.53514795  0.10550843     0.85600
C1224       C  0.62052724  0.52927857  0.11057662     1.07100
H1225       H  0.50185899  0.97240320  0.04815867     0.38900
O1226       O  0.51814024  0.96945613  0.03077685    -1.09300
O1227       O  0.54976474  0.97511826  0.93638446    -0.66000
Ni1228     Ni  0.53803876  0.99895120  0.97733212     1.26300
O1229       O  0.54081730  0.50785733  0.10936868    -0.66200
O1230       O  0.99197871  0.98124807  0.94629024    -0.78500
C1231       C  0.56876363  0.55475627  0.93421990     0.85000
O1232       O  0.55290581  0.52583975  0.92997009    -0.65700
Ni1233     Ni  0.49559422  0.92679870  0.01245835     1.27400
Ni1234     Ni  0.55921619  0.98607245  0.06730169     1.26100
H1235       H  0.58959295  0.50795635  0.99973390     0.39500
O1236       O  0.51310513  0.90757636  0.48400986    -0.80500
O1237       O  0.55408295  0.52431454  0.62290326    -0.65100
O1238       O  0.51847556  0.96275872  0.51644642    -1.11700
C1239       C  0.61829663  0.52332064  0.43892911     1.06400
O1240       O  0.57772077  0.56310892  0.56683745    -0.78400
O1241       O  0.56681219  0.55083029  0.47034145    -0.65900
Ni1242     Ni  0.49321639  0.91958657  0.53491680     1.34900
C1243       C  0.54570031  0.52988818  0.44237843     0.85200
O1244       O  0.99361024  0.97499270  0.60312730    -0.78900
O1245       O  0.96525462  0.92508759  0.58295675    -0.89200
C1246       C  0.56809787  0.55292979  0.61085230     0.84700
O1247       O  0.52495559  0.92118284  0.58069618    -0.67400
O1248       O  0.62265164  0.54609537  0.46361054    -0.86700
C1249       C  0.54419894  0.94153647  0.61087642     0.85600
C1250       C  0.96775934  0.94721394  0.60755708     1.07100
H1251       H  0.58894880  0.50495704  0.55127295     0.38900
O1252       O  0.57304476  0.50874154  0.53506372    -1.09300
O1253       O  0.53854877  0.50216602  0.44527807    -0.66000
Ni1254     Ni  0.55941451  0.97763888  0.47868782     1.26300
O1255       O  0.55014871  0.96906250  0.60966611    -0.66200
O1256       O  0.59310757  0.49584324  0.44581185    -0.78500
C1257       C  0.52261422  0.91846165  0.44026840     0.85000
O1258       O  0.53767466  0.94711936  0.43054382    -0.65700
Ni1259     Ni  0.59823697  0.55190908  0.51605893     1.27400
Ni1260     Ni  0.53817085  0.99266690  0.56676171     1.26100
H1261       H  0.50330065  0.96666263  0.49823174     0.39500
N1262       N  0.72610883  0.55374468  0.24772857    -0.03000
C1263       C  0.76030120  0.56944254  0.23900802    -0.00400
C1264       C  0.77668726  0.56855123  0.28048023    -0.23300
C1265       C  0.75209166  0.55281690  0.31652312    -0.23500
C1266       C  0.72127142  0.54407077  0.29582463    -0.00500
H1267       H  0.80390717  0.58044041  0.28516053     0.13200
H1268       H  0.75652174  0.55035389  0.35484535     0.13300
N1269       N  0.49587147  0.58513305  0.25082889    -0.03000
C1270       C  0.98047885  0.59992721  0.24725210    -0.00400
C1271       C  0.96595898  0.59926339  0.29232025    -0.23300
C1272       C  0.47156911  0.58438463  0.32404277    -0.23500
C1273       C  0.49163415  0.57620546  0.29944757    -0.00500
H1274       H  0.95107963  0.60933607  0.30067291     0.13200
H1275       H  0.46465105  0.58072359  0.36285587     0.13300
C1276       C  0.92810251  0.65312071  0.12063546     0.80700
N1277       N  0.89354785  0.63441419  0.12163395    -0.77600
C1278       C  0.87364126  0.64640182  0.11615880     0.83100
N1279       N  0.88886344  0.67764320  0.10990023    -0.77600
C1280       C  0.92331355  0.69703046  0.11074789     0.83200
N1281       N  0.94250936  0.68431172  0.11555159    -0.79300
N1282       N  0.48600456  0.82469011  0.24829920    -0.03000
C1283       C  0.47340563  0.79478537  0.23620398    -0.00400
C1284       C  0.47103763  0.77730328  0.27732128    -0.23300
C1285       C  0.48124502  0.79661123  0.31638162    -0.23500
C1286       C  0.48936152  0.82520464  0.29785142    -0.00500
H1287       H  0.46150446  0.75276573  0.27892860     0.13200
H1288       H  0.48139924  0.79019548  0.35451128     0.13300
C1289       C  0.91676457  0.73837722  0.14612185    -0.05300
C1290       C  0.93834276  0.73025645  0.12380077     0.00600
C1291       C  0.97402222  0.75216181  0.12401131    -0.08000
C1292       C  0.48332271  0.77751559  0.15748131    -0.05400
C1293       C  0.96493618  0.78198374  0.18514834     0.00600
C1294       C  0.92953472  0.76411856  0.17651062    -0.07900
C1295       C  0.90510228  0.77115246  0.20156694     0.62500
H1296       H  0.88950830  0.72295125  0.14339738     0.13200
H1297       H  0.51045447  0.79293031  0.16227301     0.13200
C1298       C  0.49793763  0.75279653  0.09125086     0.62700
F1299       F  0.87173598  0.75077520  0.18859244    -0.22500
F1300       F  0.91373546  0.80067345  0.18755239    -0.19800
F1301       F  0.90659239  0.76917164  0.25212106    -0.19500
F1302       F  0.48332624  0.73427895  0.05118865    -0.19500
F1303       F  0.51484638  0.74210029  0.11834589    -0.19800
F1304       F  0.52134997  0.78245314  0.07322443    -0.22500
C1305       C  0.95500672  0.59838408  0.16730304    -0.05300
C1306       C  0.97705180  0.61629545  0.20441981     0.00600
C1307       C  0.98766955  0.64806423  0.20690817    -0.08000
C1308       C  0.97390570  0.65991190  0.17438082    -0.05400
C1309       C  0.94874489  0.64111345  0.14111289     0.00600
C1310       C  0.94095169  0.61039813  0.13498593    -0.07900
C1311       C  0.91653514  0.58899410  0.09711691     0.62500
H1312       H  0.94675563  0.57413492  0.16581865     0.13200
H1313       H  0.98074435  0.68363279  0.17862126     0.13200
C1314       C  0.50794336  0.67028260  0.24862908     0.62700
F1315       F  0.92857207  0.57180295  0.07693724    -0.22500
F1316       F  0.91276791  0.60511476  0.05888199    -0.19800
F1317       F  0.88522980  0.56896559  0.11981348    -0.19500
F1318       F  0.52133620  0.65782018  0.27933042    -0.19500
F1319       F  0.48792114  0.67712689  0.27687912    -0.19800
F1320       F  0.53486222  0.69761323  0.22805773    -0.22500
C1321       C  0.78574694  0.57827553  0.15543230    -0.05300
C1322       C  0.77963659  0.59072828  0.19686969     0.00600
C1323       C  0.80050218  0.62304433  0.20415399    -0.08000
C1324       C  0.82925565  0.64099782  0.17335879    -0.05400
C1325       C  0.83790448  0.62790460  0.13548400     0.00600
C1326       C  0.81449691  0.59645643  0.12406427    -0.07900
C1327       C  0.81861987  0.58080198  0.08011146     0.62500
H1328       H  0.76947815  0.55360705  0.14967948     0.13200
H1329       H  0.84668445  0.66509601  0.18195019     0.13200
C1330       C  0.79578676  0.63918648  0.24702375     0.62700
F1331       F  0.78986530  0.56882234  0.05199888    -0.22500
F1332       F  0.82193429  0.55670538  0.09629789    -0.19800
F1333       F  0.84641512  0.60079147  0.05014412    -0.19500
F1334       F  0.82156513  0.64742336  0.27992651    -0.19500
F1335       F  0.76480192  0.62096642  0.27165812    -0.19800
F1336       F  0.79762386  0.66576010  0.22985894    -0.22500
C1337       C  0.53061988  0.87615890  0.33194856    -0.05300
C1338       C  0.49690231  0.85112606  0.32960938     0.00600
C1339       C  0.47147934  0.84946034  0.36126555    -0.08000
C1340       C  0.48120284  0.87227315  0.39643184    -0.05400
C1341       C  0.51507745  0.89680023  0.40009001     0.00600
C1342       C  0.54024122  0.89945211  0.36656663    -0.07900
C1343       C  0.57710583  0.92605590  0.36824663     0.62500
H1344       H  0.54950157  0.87681133  0.30734680     0.13200
H1345       H  0.96051985  0.86878811  0.42352959     0.13200
C1346       C  0.93300424  0.82048515  0.36177527     0.62700
F1347       F  0.59777346  0.92240731  0.33562909    -0.22500
F1348       F  0.58923968  0.92782757  0.41506879    -0.19800
F1349       F  0.57946811  0.95353234  0.35570397    -0.19500
F1350       F  0.92999316  0.79329555  0.37806922    -0.19500
F1351       F  0.92159450  0.81711148  0.31425952    -0.19800
F1352       F  0.91196833  0.82545572  0.39135573    -0.22500
C1353       C  0.65641863  0.50905674  0.40119931    -0.05300
C1354       C  0.64364145  0.52850615  0.40029037     0.00600
C1355       C  0.65324892  0.55042706  0.36087577    -0.08000
C1356       C  0.67716567  0.55337620  0.32538959    -0.05400
C1357       C  0.69053181  0.53433889  0.32684110    -0.01200
C1358       C  0.67913722  0.51105299  0.36461878    -0.07900
C1359       C  0.69020489  0.48793852  0.36874824     0.62500
H1360       H  0.64844713  0.49193233  0.43098002     0.13200
H1361       H  0.68684413  0.57175161  0.29762006     0.13200
C1362       C  0.63756864  0.56986966  0.35522336     0.62700
F1363       F  0.66171787  0.45831253  0.37467807    -0.22500
F1364       F  0.71020900  0.49438336  0.40949889    -0.19800
F1365       F  0.70827009  0.48820979  0.32778211    -0.19500
F1366       F  0.64582824  0.58928060  0.39443482    -0.19500
F1367       F  0.60260924  0.55046971  0.35335569    -0.19800
F1368       F  0.64887376  0.58812428  0.31243295    -0.22500
C1369       C  0.98905442  0.53203657  0.34623376    -0.05300
C1370       C  0.50798363  0.56218538  0.32654882     0.00600
C1371       C  0.54173932  0.58065109  0.34285877    -0.08000
C1372       C  0.55251868  0.56891994  0.38059519    -0.05400
C1373       C  0.53104566  0.53928272  0.40233929     0.00600
C1374       C  0.99985674  0.52023007  0.38420715    -0.07900
C1375       C  0.97446203  0.48901497  0.40866676     0.62500
H1376       H  0.96283990  0.51892316  0.33491757     0.13200
H1377       H  0.57822295  0.58306346  0.39356905     0.13200
C1378       C  0.56624009  0.61290007  0.32128054     0.62700
F1379       F  0.94205907  0.47658534  0.39071944    -0.22500
F1380       F  0.97274088  0.49238835  0.45879120    -0.19800
F1381       F  0.98885951  0.97094975  0.39204444    -0.19500
F1382       F  0.59741198  0.62734727  0.34386504    -0.19500
F1383       F  0.55283588  0.63124525  0.32671867    -0.19800
F1384       F  0.57193405  0.61079887  0.27204471    -0.22500
C1385       C  0.53629006  0.89522151  0.16357650    -0.05300
C1386       C  0.51211991  0.90306039  0.15419957     0.00600
C1387       C  0.47933835  0.88508674  0.17709246    -0.08000
C1388       C  0.47195513  0.85983010  0.20854182    -0.05400
C1389       C  0.49551424  0.85107121  0.21603673     0.00600
C1390       C  0.52859506  0.86944367  0.19396161    -0.07900
C1391       C  0.55665458  0.86294403  0.20030008     0.62500
H1392       H  0.56110354  0.90864213  0.14525218     0.13200
H1393       H  0.94975725  0.84899369  0.23550910     0.13200
C1394       C  0.95433458  0.89643285  0.17998876     0.62700
F1395       F  0.58473974  0.88859189  0.21964102    -0.22500
F1396       F  0.56579757  0.85752668  0.15477689    -0.19800
F1397       F  0.54743438  0.83768895  0.23108217    -0.19500
F1398       F  0.94395574  0.89465622  0.13206341    -0.19500
F1399       F  0.96906033  0.92652662  0.19508284    -0.19800
F1400       F  0.92575627  0.87769697  0.20967045    -0.22500
C1401       C  0.54267065  0.57829726  0.14095622    -0.05300
C1402       C  0.53008366  0.54623015  0.14179288     0.00600
C1403       C  0.50459105  0.52715461  0.17818100    -0.08000
C1404       C  0.49347308  0.54105748  0.21171497    -0.05400
C1405       C  0.50767241  0.57326942  0.21240775     0.00600
C1406       C  0.53320147  0.59230001  0.17642221    -0.07900
C1407       C  0.55315193  0.62741000  0.17474507     0.62500
H1408       H  0.56199433  0.59338484  0.11365906     0.13200
H1409       H  0.47372757  0.52678047  0.23893365     0.13200
C1410       C  0.48913775  0.49242200  0.18271797     0.62700
F1411       F  0.58763451  0.63867674  0.17105898    -0.22500
F1412       F  0.54807153  0.63957901  0.21619536    -0.19800
F1413       F  0.03643368  0.63618081  0.13392122    -0.19500
F1414       F  0.51386263  0.48660774  0.19636943    -0.19500
F1415       F  0.48043237  0.98387240  0.13027828    -0.19800
F1416       F  0.46306731  0.47841329  0.21798516    -0.22500
C1417       C  0.69543213  0.57164710  0.19849569    -0.05300
C1418       C  0.70008494  0.54769353  0.21287299     0.00600
C1419       C  0.67876233  0.51788612  0.19363555    -0.08000
C1420       C  0.65358049  0.51313003  0.16021835    -0.05400
C1421       C  0.64823980  0.53687698  0.14619988     0.00600
C1422       C  0.66909453  0.56664918  0.16698809    -0.07900
C1423       C  0.66286807  0.59277449  0.15856837     0.62500
H1424       H  0.71208122  0.59419363  0.21368179     0.13200
H1425       H  0.63738021  0.49036235  0.14536703     0.13200
C1426       C  0.68134700  0.49063574  0.20980629     0.62700
F1427       F  0.68203867  0.61722273  0.18923521    -0.22500
F1428       F  0.62893480  0.58205443  0.16817547    -0.19800
F1429       F  0.67158225  0.60411952  0.11054922    -0.19500
F1430       F  0.66563434  0.47984552  0.25556629    -0.19500
F1431       F  0.71501499  0.49926036  0.21216964    -0.19800
F1432       F  0.66542586  0.46654588  0.17749998    -0.22500
C1433       C  0.90386048  0.94835047  0.69870658    -0.05300
C1434       C  0.88436540  0.91703693  0.71456863     0.00600
C1435       C  0.89215896  0.89605213  0.69468681    -0.08000
C1436       C  0.91846117  0.90701021  0.65886819    -0.05400
C1437       C  0.93904800  0.93857475  0.64392087     0.00600
C1438       C  0.93119602  0.95967752  0.66396914    -0.07900
C1439       C  0.95091713  0.99379678  0.64873087     0.62500
H1440       H  0.89761772  0.96403548  0.71470551     0.13200
H1441       H  0.92380464  0.89046549  0.64386701     0.13200
C1442       C  0.87465902  0.86225286  0.71084106     0.62700
F1443       F  0.95127817  0.99701263  0.59803014    -0.22500
F1444       F  0.48644005  0.00837079  0.66699482    -0.19800
F1445       F  0.43926071  0.00982684  0.67194774    -0.19500
F1446       F  0.85267692  0.84403058  0.67486562    -0.19500
F1447       F  0.85672439  0.85579883  0.75464819    -0.19800
F1448       F  0.89866178  0.85436468  0.71753121    -0.22500
C1449       C  0.91320180  0.91655381  0.82628716    -0.05300
C1450       C  0.89797815  0.93396642  0.82404623     0.00600
C1451       C  0.91012065  0.96001631  0.85400618    -0.08000
C1452       C  0.93437065  0.96554114  0.88938659    -0.05400
C1453       C  0.94775473  0.94660407  0.89446798     0.00600
C1454       C  0.93807922  0.92239172  0.86082251    -0.07900
C1455       C  0.95310675  0.90220718  0.86136289     0.62500
H1456       H  0.90368189  0.89675934  0.80320124     0.13200
H1457       H  0.94218452  0.98434877  0.91437909     0.13200
C1458       C  0.89671977  0.98136288  0.85110812     0.62700
F1459       F  0.94428736  0.88403512  0.82031854    -0.22500
F1460       F  0.94120587  0.88260561  0.90256225    -0.19800
F1461       F  0.50098160  0.93359087  0.84853940    -0.19500
F1462       F  0.87033764  0.97152496  0.88518663    -0.19500
F1463       F  0.88528774  0.98193550  0.80457698    -0.19800
F1464       F  0.92218917  0.01138429  0.86136104    -0.22500
C1465       C  0.80397881  0.88568667  0.66509500    -0.05300
C1466       C  0.80335145  0.87102818  0.70964779     0.00600
C1467       C  0.77692317  0.83944691  0.71869058    -0.08000
C1468       C  0.75070511  0.82487406  0.68494118    -0.05400
C1469       C  0.74911394  0.84071203  0.64347162     0.00600
C1470       C  0.77736976  0.87091614  0.63146586    -0.07900
C1471       C  0.77988411  0.88889606  0.58493618     0.62500
H1472       H  0.82408258  0.90969837  0.65812047     0.13200
H1473       H  0.72946031  0.80160258  0.69389456     0.13200
C1474       C  0.77304659  0.82017740  0.76463056     0.62700
F1475       F  0.81209697  0.90214837  0.56365869    -0.22500
F1476       F  0.77453476  0.91222418  0.59662506    -0.19800
F1477       F  0.75662157  0.87029930  0.55045837    -0.19500
F1478       F  0.74362530  0.81284137  0.79027170    -0.19500
F1479       F  0.79983274  0.83473875  0.79615062    -0.19800
F1480       F  0.77024720  0.79296140  0.75080239    -0.22500
C1481       C  0.55942291  0.89750728  0.71254884    -0.05300
C1482       C  0.59468069  0.91644497  0.71765966     0.00600
C1483       C  0.61302057  0.94496030  0.69022034    -0.08000
C1484       C  0.59554195  0.95246801  0.65638197    -0.05400
C1485       C  0.56052625  0.93264288  0.64910817     0.00600
C1486       C  0.54188001  0.90498089  0.67869843    -0.07900
C1487       C  0.50345379  0.88387490  0.67596512     0.62500
H1488       H  0.54572427  0.87665728  0.73541851     0.13200
H1489       H  0.60959792  0.97398571  0.63483126     0.13200
C1490       C  0.65068567  0.96874411  0.69558712     0.62700
F1491       F  0.98608016  0.86182407  0.71655834    -0.22500
F1492       F  0.98983020  0.86814196  0.63459274    -0.19800
F1493       F  0.48857204  0.90108670  0.68057844    -0.19500
F1494       F  0.66726705  0.97407360  0.65044744    -0.19500
F1495       F  0.66618476  0.95988566  0.72920034    -0.19800
F1496       F  0.65472685  0.99621215  0.71079606    -0.22500
C1497       C  0.60364478  0.95162086  0.83118888    -0.05300
C1498       C  0.59463001  0.92075633  0.83230654     0.00600
C1499       C  0.56992062  0.89948810  0.86725933    -0.08000
C1500       C  0.55633689  0.91038295  0.90187085    -0.05400
C1501       C  0.56616707  0.94167599  0.90265838     0.00600
C1502       C  0.58967068  0.96263795  0.86536445    -0.07900
C1503       C  0.60054586  0.99647528  0.86105187     0.62500
H1504       H  0.62249879  0.96722837  0.80383458     0.13200
H1505       H  0.53774501  0.89417711  0.92894322     0.13200
C1506       C  0.55769679  0.86525038  0.86801471     0.62700
F1507       F  0.62528799  0.01257500  0.82448882    -0.22500
F1508       F  0.61390071  0.01089583  0.90487227    -0.19800
F1509       F  0.57285980  0.99844457  0.84930780    -0.19500
F1510       F  0.58333500  0.86113801  0.88324830    -0.19500
F1511       F  0.54806199  0.85372134  0.82146501    -0.19800
F1512       F  0.52992172  0.84796996  0.89975890    -0.22500
C1513       C  0.65604959  0.89586578  0.66113680    -0.05300
C1514       C  0.62955605  0.87869687  0.69581407     0.00600
C1515       C  0.61051434  0.84592864  0.69429923    -0.08000
C1516       C  0.62151945  0.83150554  0.66225923    -0.05400
C1517       C  0.65091719  0.84868547  0.63192172     0.00600
C1518       C  0.66650974  0.88137643  0.62809730    -0.07900
C1519       C  0.69423988  0.90215581  0.59060566     0.62500
H1520       H  0.67018908  0.92094492  0.66187946     0.13200
H1521       H  0.60874017  0.80655407  0.66412696     0.13200
C1522       C  0.57955269  0.82614837  0.72802383     0.62700
F1523       F  0.68432041  0.91950230  0.56457085    -0.22500
F1524       F  0.70075340  0.88586548  0.55696029    -0.19800
F1525       F  0.72379666  0.92211018  0.61476669    -0.19500
F1526       F  0.55565007  0.83380815  0.71938297    -0.19500
F1527       F  0.58851486  0.83094790  0.77680246    -0.19800
F1528       F  0.56448083  0.79482127  0.71994799    -0.22500
C1529       C  0.60578972  0.61978002  0.69887579    -0.05300
C1530       C  0.57876961  0.62439009  0.70477932     0.00600
C1531       C  0.54753734  0.60419086  0.68184815    -0.08000
C1532       C  0.54435889  0.57980704  0.65390634    -0.05400
C1533       C  0.57158469  0.57555734  0.64737809     0.00600
C1534       C  0.60303474  0.59612850  0.66946919    -0.07900
C1535       C  0.63361590  0.59328364  0.66135397     0.62500
H1536       H  0.62921969  0.63518138  0.71732018     0.13200
H1537       H  0.52094002  0.56454231  0.63521939     0.13200
C1538       C  0.51801829  0.60887184  0.68581180     0.62700
F1539       F  0.66130920  0.61473291  0.68772774    -0.22500
F1540       F  0.64304928  0.59818124  0.61197344    -0.19800
F1541       F  0.62547389  0.56396131  0.67611503    -0.19500
F1542       F  0.03376410  0.64124083  0.66276643    -0.19500
F1543       F  0.51023426  0.61010781  0.73461106    -0.19800
F1544       F  0.48904725  0.58509703  0.66468099    -0.22500
C1545       C  0.55133480  0.58957399  0.82125463    -0.05300
C1546       C  0.58225084  0.61805572  0.81637165     0.00600
C1547       C  0.60990469  0.62382523  0.84565324    -0.08000
C1548       C  0.60431234  0.60241132  0.88342289    -0.05400
C1549       C  0.57267832  0.57467082  0.89088490     0.00600
C1550       C  0.54602499  0.56735907  0.85777440    -0.07900
C1551       C  0.51150781  0.53731273  0.86240950     0.62500
H1552       H  0.53071400  0.58563490  0.79804839     0.13200
H1553       H  0.62505352  0.60744697  0.90740041     0.13200
C1554       C  0.64558042  0.65229753  0.83896856     0.62700
F1555       F  0.99478882  0.54678604  0.83658087    -0.22500
F1556       F  0.00658175  0.54372009  0.91520148    -0.19800
F1557       F  0.51491779  0.51254388  0.85310849    -0.19500
F1558       F  0.65298980  0.67092222  0.87908094    -0.19500
F1559       F  0.64973409  0.66956470  0.79664251    -0.19800
F1560       F  0.66872651  0.64313444  0.83598054    -0.22500
C1561       C  0.62510261  0.69908651  0.65875715    -0.05300
C1562       C  0.59590394  0.69352484  0.68455602     0.00600
C1563       C  0.58358477  0.71317447  0.67461954    -0.08000
C1564       C  0.60384811  0.74036124  0.64600337    -0.05400
C1565       C  0.63620618  0.74894910  0.62712490     0.00600
C1566       C  0.64532678  0.72632922  0.62932738    -0.07900
C1567       C  0.67599538  0.73044982  0.60128586     0.62500
H1568       H  0.63408131  0.68369702  0.66573464     0.13200
H1569       H  0.59496247  0.75602076  0.64172261     0.13200
C1570       C  0.55046673  0.70789574  0.69616430     0.62700
F1571       F  0.67456941  0.70268547  0.59868363    -0.22500
F1572       F  0.70569179  0.75130990  0.62427725    -0.19800
F1573       F  0.67680301  0.74090801  0.55364981    -0.19500
F1574       F  0.55760891  0.73164657  0.72733744    -0.19500
F1575       F  0.53136920  0.68001092  0.72212481    -0.19800
F1576       F  0.53084041  0.70803291  0.65840860    -0.22500
loop_ 
_geom_bond_atom_site_label_1 
_geom_bond_atom_site_label_2 
_geom_bond_distance 
_geom_bond_site_symmetry_2 
_ccdc_geom_bond_type 
N1            C5   1.357       .  A
N1            C2   1.363       .  A
N1          C348   1.446       .  S
C2            C3   1.386       .  A
C2          C380   1.482       .  S
C3            C4   1.368       .  A
C3            H6   1.082       .  S
C4            C5   1.378       .  A
C4            H7   1.082       .  S
C5          C364   1.473       .  S
N8           C12   1.358       .  A
N8            C9   1.360       .  A
N8          C300   1.443       .  S
C9           C10   1.382       .  A
C9          C332   1.483       .  S
C10          C11   1.373       .  A
C10          H13   1.082       .  S
C11          C12   1.381       .  A
C11          H14   1.082       .  S
C12         C316   1.482       .  S
C15          N16   1.359       .  A
C15          N20   1.362       .  A
C15         C335   1.496       .  S
N16          C17   1.358       .  A
C17          N18   1.359       .  A
C17         C287   1.479       .  S
N18          C19   1.360       .  A
C19          N20   1.365       .  A
C19         C383   1.498       .  S
N21          C25   1.360       .  A
N21          C22   1.361       .  A
N21         C252   1.445       .  S
C22          C23   1.384       .  A
C22         C284   1.481       .  S
C23          C24   1.370       .  A
C23          H26   1.082       .  S
C24          C25   1.381       .  A
C24          H27   1.082       .  S
C25         C268   1.484       .  S
O28         Ni34   1.937   1_556  S
O28          C49   1.272       .  A
O29         Ni52   1.921       .  S
O29          C38   1.273       .  A
O30         Ni34   1.921       .  S
O30        Ni446   1.920   1_545  S
O30        Ni440   1.914   1_544  S
O30          H53   0.966   1_554  S
C31         C271   1.482       .  S
C31          O48   1.267       .  A
C31          O40   1.273       .  A
O32         Ni51   1.934   1_455  S
O32          C38   1.273       .  A
O33         Ni51   1.908   1_456  S
O33          C35   1.271       .  A
Ni34         O37   1.923       .  S
Ni34         O39   1.908       .  S
C35         C319   1.504       .  S
C35          O45   1.269       .  A
O36        Ni446   1.922   1_545  S
O36          C42   1.275       .  A
O37          C42   1.270       .  A
C38         C204   1.483       .  S
O39          C41   1.273       .  A
O40        Ni839   1.938   1_556  S
C41         C220   1.513       .  S
C41          O47   1.279       .  A
C42         C239   1.497       .  S
H43          O44   0.966       .  S
O44         Ni52   1.919       .  S
O44         Ni46   1.905   1_554  S
O44         Ni51   1.924   1_455  S
O45         Ni46   1.936       .  S
Ni46        O444   1.890       .  S
Ni46        O836   1.907   1_455  S
Ni46        O424   1.923   1_556  S
O47        Ni446   1.951   1_545  S
O48        Ni834   1.897       .  S
C49         C367   1.484       .  S
C49          O50   1.258       .  A
O50        Ni440   1.891   1_545  S
Ni51        O828   1.939   1_554  S
Ni52        O430   1.924       .  S
Ni52        O441   1.958       .  S
Ni52        O424   1.921       .  S
O54         Ni60   1.942   1_455  S
O54          C75   1.274       .  A
O55        Ni472   1.924   1_545  S
O55          C64   1.274       .  A
O56         Ni60   1.910   1_455  S
O56         Ni78   1.917       .  S
O56         Ni72   1.903       .  S
O56          H79   0.964   1_455  S
C57         C172   1.487       .  S
C57          O74   1.266   1_545  A
C57          O66   1.273       .  A
O58         Ni77   1.927       .  S
O58          C64   1.271       .  A
O59         Ni77   1.903       .  S
O59          C61   1.270       .  A
Ni60         O65   1.910   1_655  S
Ni60        O851   1.919       .  S
C61         C191   1.490       .  S
C61          O71   1.274       .  A
O62        Ni866   1.936       .  S
O62          C68   1.280       .  A
O63        Ni848   1.916       .  S
O63          C68   1.275       .  A
C64         C351   1.483       .  S
O65          C67   1.270       .  A
O66         Ni77   1.937       .  S
C67         C303   1.488       .  S
C67          O73   1.278       .  A
C68         C255   1.503       .  S
H69          O70   0.966       .  S
O70         Ni77   1.923       .  S
O70        Ni472   1.936   1_545  S
O70        Ni466   1.916   1_545  S
O71        Ni466   1.942   1_545  S
Ni72         O76   1.899       .  S
Ni72        O465   1.929       .  S
Ni72        O468   1.898       .  S
Ni72        O464   1.908       .  S
O73         Ni78   1.947       .  S
O74        Ni466   1.906       .  S
C75         C159   1.486       .  S
C75          O76   1.262       .  A
Ni78        O449   1.927       .  S
Ni78        O850   1.928   1_455  S
Ni78        O464   1.920       .  S
N80          C84   1.364       .  A
N80          C81   1.362       .  A
N80         C236   1.447       .  S
C81          C82   1.381       .  A
C81         C140   1.483       .  S
C82          C83   1.370       .  A
C82          H85   1.082       .  S
C83          C84   1.383       .  A
C83          H86   1.082       .  S
C84         C175   1.489       .  S
N87          C91   1.365       .  A
N87         C876   1.369   1_455  A
N87         C223   1.454       .  S
C88         N875   1.368       .  A
C88          C89   1.383       .  A
C88         C124   1.481       .  S
C89         C878   1.363       .  A
C89          H92   1.082       .  S
C90          C91   1.378   1_655  A
C90         C877   1.365       .  A
C90          H93   1.082       .  S
C91         C188   1.482       .  S
C94          N95   1.362       .  A
C94          N99   1.360       .  A
C94         C127   1.497       .  S
N95          C96   1.363       .  A
C96          N97   1.363       .  A
C96         C143   1.491       .  S
N97          C98   1.362       .  A
C98          N99   1.357       .  A
C98         C108   1.498       .  S
N100        C104   1.359   1_655  A
N100        C101   1.361       .  A
N100        C207   1.444   1_655  S
C101        C102   1.382       .  A
C101        C899   1.483       .  S
C102        C103   1.372       .  A
C102        H105   1.082       .  S
C103        C104   1.381   1_655  A
C103        H106   1.082   1_655  S
C104        C156   1.482       .  S
C107        C108   1.405       .  A
C107        C112   1.406       .  A
C107        H114   1.081       .  S
C108        C109   1.423       .  A
C109        C898   1.411       .  A
C109        C904   1.515       .  S
C110        C897   1.410       .  A
C110        C899   1.402       .  A
C110        H115   1.084   1_655  S
C111        C112   1.419       .  A
C111        C898   1.402       .  A
C111        C889   1.482       .  S
C112        C113   1.520       .  S
C113        F117   1.384       .  S
C113        F118   1.378       .  S
C113        F119   1.382       .  S
C116        C897   1.515   1_455  S
C116        F120   1.383   1_455  S
C116        F121   1.383       .  S
C116        F122   1.384       .  S
C123        C124   1.403       .  A
C123        C128   1.414       .  A
C123        H130   1.084       .  S
C124        C125   1.423       .  A
C125        C126   1.400       .  A
C125        C920   1.524       .  S
C126        C127   1.405       .  A
C126        H131   1.084       .  S
C127        C128   1.422       .  A
C128        C129   1.513       .  S
C129        F133   1.385       .  S
C129        F134   1.383       .  S
C129        F135   1.381       .  S
C132        C913   1.523   1_455  S
C132        F136   1.379       .  S
C132        F137   1.383       .  S
C132        F138   1.384       .  S
C139        C140   1.405       .  A
C139        C144   1.414       .  A
C139        H146   1.084       .  S
C140        C141   1.419       .  A
C141        C142   1.402       .  A
C141        C148   1.519       .  S
C142        C143   1.403       .  A
C142        H147   1.084       .  S
C143        C144   1.420       .  A
C144        C145   1.516       .  S
C145        F149   1.383       .  S
C145        F150   1.382       .  S
C145        F151   1.383       .  S
C148        F152   1.383       .  S
C148        F153   1.380       .  S
C148        F154   1.383       .  S
C155        C156   1.400       .  A
C155        C160   1.411       .  A
C155        H162   1.083       .  S
C156        C157   1.420   1_455  A
C157        C158   1.405       .  A
C157        C952   1.521       .  S
C158        C159   1.401   1_655  A
C158        H951   1.083       .  S
C159        C160   1.422       .  A
C160        C161   1.516       .  S
C161        F165   1.384       .  S
C161        F166   1.383       .  S
C161        F167   1.382       .  S
H163        C946   1.083       .  S
C164        C945   1.521       .  S
C164        F168   1.380       .  S
C164        F169   1.382       .  S
C164        F170   1.385       .  S
C171        C172   1.402       .  A
C171        C176   1.408       .  A
C171        H178   1.085   1_545  S
C172        C173   1.419       .  A
C173        C174   1.407       .  A
C173        C180   1.517       .  S
C174        C175   1.403       .  A
C174        H179   1.080       .  S
C175        C176   1.423       .  A
C176        C177   1.520   1_545  S
C177        F181   1.383       .  S
C177        F182   1.383       .  S
C177        F183   1.381       .  S
C180        F184   1.382       .  S
C180        F185   1.382       .  S
C180        F186   1.385       .  S
C187        C192   1.410       .  A
C187        C976   1.405       .  A
C187        H194   1.083       .  S
C188        C189   1.413       .  A
C188        C975   1.405   1_455  A
C189        C190   1.403       .  A
C189        C196   1.517       .  S
C190        C191   1.406       .  A
C190        H195   1.082       .  S
C191        C980   1.420       .  A
C192        C979   1.417       .  A
C192        C193   1.516   1_545  S
C193        F197   1.385       .  S
C193        F198   1.383       .  S
C193        F593   1.382       .  S
C196        F200   1.385       .  S
C196        F201   1.383       .  S
C196        F202   1.380       .  S
F199        C587   1.382       .  S
C203        C204   1.400       .  A
C203        C208   1.409       .  A
C203        H210   1.085       .  S
C204        C205   1.415   1_455  A
C205        C206   1.411       .  A
C205       C1000   1.514       .  S
C206        C207   1.402   1_655  A
C206        H999   1.080       .  S
C207        C208   1.423       .  A
C208        C209   1.519       .  S
C209        F213   1.383       .  S
C209        F214   1.384       .  S
C209        F215   1.379       .  S
H211        C994   1.080       .  S
C212        C993   1.515       .  S
C212        F216   1.383       .  S
C212        F217   1.381       .  S
C212        F218   1.384       .  S
C219        C220   1.413       .  A
C219        C224   1.409       .  A
C219        H226   1.083       .  S
C220        C221   1.426       .  A
C221        C222   1.413       .  A
C221        C228   1.518   1_445  S
C222        C223   1.405       .  A
C222        H227   1.081   1_455  S
C223        C224   1.419       .  A
C224        C225   1.516       .  S
C225        F229   1.385       .  S
C225        F230   1.375       .  S
C225       F1019   1.382       .  S
C228        F232   1.383   1_655  S
C228        F234   1.385       .  S
C228        F627   1.383       .  S
F231       C1013   1.382       .  S
F233        C622   1.383       .  S
C235        C236   1.399       .  A
C235        C240   1.410       .  A
C235        H242   1.079       .  S
C236        C237   1.417       .  A
C237        C238   1.409       .  A
C237        C244   1.515   1_545  S
C238        C239   1.406       .  A
C238        H243   1.083   1_545  S
C239        C240   1.427       .  A
C240        C241   1.521       .  S
C241        F245   1.385       .  S
C241        F246   1.384       .  S
C241        F247   1.382       .  S
C244        F248   1.379       .  S
C244        F249   1.383       .  S
C244        F250   1.385       .  S
C251        C252   1.405       .  A
C251        C256   1.411       .  A
C251        H258   1.083       .  S
C252        C253   1.414       .  A
C253        C254   1.408       .  A
C253        C260   1.522       .  S
C254        C255   1.414       .  A
C254        H259   1.082       .  S
C255        C256   1.422       .  A
C256        C257   1.519       .  S
C257        F261   1.383       .  S
C257       F1050   1.383       .  S
C257       F1051   1.385       .  S
C260        F264   1.379       .  S
C260        F265   1.380       .  S
C260        F266   1.385       .  S
F262       C1045   1.383       .  S
F263       C1045   1.385       .  S
C267        C268   1.401       .  A
C267        C272   1.404       .  A
C267        H274   1.075       .  S
C268        C269   1.417       .  A
C269        C270   1.403       .  A
C269        C276   1.517       .  S
C270        C271   1.404       .  A
C270        H275   1.084       .  S
C271        C272   1.420       .  A
C272        C273   1.521       .  S
C273        F277   1.386       .  S
C273        F278   1.382       .  S
C273       F1067   1.382       .  S
C276        F280   1.383       .  S
C276        F281   1.382       .  S
C276        F282   1.383       .  S
F279       C1061   1.380   1_455  S
C283        C284   1.403       .  A
C283        C288   1.410       .  A
C283        H290   1.084       .  S
C284        C285   1.422       .  A
C285        C286   1.399       .  A
C285        C292   1.520       .  S
C286        C287   1.400       .  A
C286        H291   1.085       .  S
C287        C288   1.418       .  A
C288        C289   1.515       .  S
C289        F293   1.384       .  S
C289        F294   1.381       .  S
C289        F295   1.383       .  S
C292        F296   1.383       .  S
C292        F297   1.381       .  S
C292        F298   1.384       .  S
C299        C300   1.399       .  A
C299        C304   1.409       .  A
C299        H306   1.080       .  S
C300        C301   1.421       .  A
C301        C302   1.410       .  A
C301        C308   1.518       .  S
C302        C303   1.403       .  A
C302        H307   1.085       .  S
C303        C304   1.421       .  A
C304        C305   1.518       .  S
C305        F311   1.383   1_455  S
C305       F1097   1.385   1_455  S
C305       F1098   1.382   1_455  S
C308        F312   1.382       .  S
C308        F313   1.380       .  S
C308        F314   1.384       .  S
F309       C1093   1.385       .  S
F310       C1093   1.382       .  S
C315        C316   1.398       .  A
C315        C320   1.414       .  A
C315        H322   1.083       .  S
C316        C317   1.414       .  A
C317        C318   1.402       .  A
C317        C324   1.522       .  S
C318        C319   1.409       .  A
C318        H323   1.082       .  S
C319        C320   1.433       .  A
C320        C321   1.521       .  S
C321        F325   1.385       .  S
C321        F326   1.382       .  S
C321        F327   1.383       .  S
C324        F328   1.381       .  S
C324        F329   1.381       .  S
C324        F330   1.384       .  S
C331        C332   1.400       .  A
C331        C336   1.408       .  A
C331        H338   1.083       .  S
C332        C333   1.419       .  A
C333        C334   1.410       .  A
C333        C340   1.519       .  S
C334        C335   1.407       .  A
C334        H339   1.082       .  S
C335        C336   1.420       .  A
C336        C337   1.513       .  S
C337        F341   1.384       .  S
C337        F342   1.384       .  S
C337        F343   1.382       .  S
C340        F344   1.380       .  S
C340        F345   1.382       .  S
C340        F346   1.385       .  S
C347        C348   1.403       .  A
C347        C352   1.410       .  A
C347        H354   1.082       .  S
C348        C349   1.418       .  A
C349        C350   1.411       .  A
C349        C356   1.514       .  S
C350        C351   1.401       .  A
C350        H355   1.083       .  S
C351        C352   1.417       .  A
C352        C353   1.517       .  S
C353        F357   1.385       .  S
C353        F358   1.382       .  S
C353        F359   1.383       .  S
C356        F361   1.382       .  S
C356        F362   1.385   1_455  S
C356       F1148   1.380       .  S
F360       C1144   1.379       .  S
C363        C364   1.398       .  A
C363        C368   1.407       .  A
C363        H370   1.081       .  S
C364        C365   1.415       .  A
C365        C366   1.401       .  A
C365        C372   1.519       .  S
C366        C367   1.403       .  A
C366        H371   1.085       .  S
C367        C368   1.424       .  A
C368        C369   1.519       .  S
C369        F375   1.382       .  S
C369       F1161   1.385   1_455  S
C369       F1162   1.383       .  S
C372        F376   1.383       .  S
C372        F377   1.382       .  S
C372        F378   1.384       .  S
F373       C1157   1.385       .  S
F374       C1157   1.383       .  S
C379        C380   1.403       .  A
C379        C384   1.411       .  A
C379        H386   1.084       .  S
C380        C381   1.419       .  A
C381        C382   1.401       .  A
C381        C388   1.518       .  S
C382        C383   1.405       .  A
C382        H387   1.084       .  S
C383        C384   1.423       .  A
C384        C385   1.515       .  S
C385        F389   1.385       .  S
C385        F390   1.383       .  S
C385        F391   1.383       .  S
C388        F392   1.383       .  S
C388        F393   1.381       .  S
C388        F394   1.384       .  S
N395        C399   1.357       .  A
N395        C396   1.363       .  A
N395        C742   1.448       .  S
C396        C397   1.385       .  A
C396        C774   1.482       .  S
C397        C398   1.367       .  A
C397        H400   1.082       .  S
C398        C399   1.378       .  A
C398        H401   1.082       .  S
C399        C758   1.473       .  S
N402        C406   1.359       .  A
N402        C403   1.359       .  A
N402        C694   1.444       .  S
C403        C404   1.381       .  A
C403        C726   1.480       .  S
C404        C405   1.371       .  A
C404        H407   1.082       .  S
C405        C406   1.381       .  A
C405        H408   1.082       .  S
C406        C710   1.481       .  S
C409        N410   1.362       .  A
C409        N414   1.361       .  A
C409        C729   1.494       .  S
N410        C411   1.361       .  A
C411        N412   1.364       .  A
C411        C681   1.490       .  S
N412        C413   1.359       .  A
C413        N414   1.361       .  A
C413        C777   1.505       .  S
N415        C419   1.363       .  A
N415        C416   1.364       .  A
N415        C646   1.448       .  S
C416        C417   1.382       .  A
C416        C678   1.482       .  S
C417        C418   1.368       .  A
C417        H420   1.082       .  S
C418        C419   1.382       .  A
C418        H421   1.082       .  S
C419        C662   1.487       .  S
O422       Ni428   1.934   1_556  S
O422        C443   1.272       .  A
O423       Ni446   1.923       .  S
O423        C432   1.273       .  A
O424       Ni428   1.924       .  S
O424        H447   0.966   1_554  S
C425        C665   1.482       .  S
C425        O442   1.265       .  A
C425        O434   1.272       .  A
O426       Ni445   1.928   1_455  S
O426        C432   1.272       .  A
O427       Ni445   1.914   1_456  S
O427        C429   1.272       .  A
Ni428       O431   1.929       .  S
Ni428       O433   1.909       .  S
C429        C713   1.503       .  S
C429        O439   1.268       .  A
O430        C436   1.275       .  A
O431        C436   1.270       .  A
C432        C598   1.481       .  S
O433        C435   1.273       .  A
O434      Ni1233   1.940   1_556  S
C435        C614   1.515       .  S
C435        O441   1.281       .  A
C436        C633   1.510       .  S
H437        O438   0.966   1_655  S
O438       Ni446   1.919       .  S
O438       Ni440   1.906   1_554  S
O438       Ni445   1.922   1_455  S
O439       Ni440   1.933       .  S
Ni440      O1230   1.900   1_455  S
O442      Ni1228   1.896       .  S
C443        C761   1.481       .  S
C443        O444   1.259       .  A
Ni445      O1222   1.937   1_554  S
O448       Ni454   1.935   1_455  S
O448        C469   1.272       .  A
O449        C458   1.274       .  A
O450       Ni454   1.914   1_455  S
O450       Ni472   1.911       .  S
O450       Ni466   1.905       .  S
O450        H473   0.967       .  S
C451        C566   1.479       .  S
C451        O468   1.269       .  A
C451        O460   1.276       .  A
O452       Ni471   1.932       .  S
O452        C458   1.271       .  A
O453       Ni471   1.903       .  S
O453        C455   1.269       .  A
Ni454      O1245   1.917       .  S
Ni454       O459   1.911   1_655  S
C455        C585   1.489       .  S
C455        O465   1.270       .  A
O456      Ni1260   1.937       .  S
O456        C462   1.278       .  A
O457      Ni1242   1.918       .  S
O457        C462   1.275       .  A
C458        C745   1.483       .  S
O459        C461   1.269       .  A
O460       Ni471   1.935       .  S
C461        C697   1.491       .  S
C461        O467   1.277       .  A
C462        C649   1.509       .  S
H463        O464   0.966       .  S
O464       Ni471   1.916       .  S
Ni466       O470   1.897       .  S
O467       Ni472   1.942       .  S
C469        C553   1.476       .  S
C469        O470   1.261       .  A
Ni472      O1244   1.942   1_455  S
N474        C478   1.362       .  A
N474        C475   1.359       .  A
N474        C630   1.450       .  S
C475        C476   1.380       .  A
C475        C534   1.476       .  S
C476        C477   1.370       .  A
C476        H479   1.082       .  S
C477        C478   1.383       .  A
C477        H480   1.082       .  S
C478        C569   1.478       .  S
N481        C485   1.367       .  A
N481       C1270   1.369       .  A
N481        C617   1.459   1_655  S
C482       N1269   1.370       .  A
C482        C483   1.383       .  A
C482        C518   1.487       .  S
C483       C1272   1.365       .  A
C483        H486   1.083       .  S
C484       C1271   1.362       .  A
C484        C485   1.378       .  A
C484        H487   1.082       .  S
C485        C582   1.481   1_655  S
C488        N489   1.361       .  A
C488        N493   1.362       .  A
C488        C521   1.491       .  S
N489        C490   1.362       .  A
C490        N491   1.360       .  A
C490        C537   1.491       .  S
N491        C492   1.361       .  A
C492        N493   1.361       .  A
C492        C502   1.501       .  S
N494        C498   1.357       .  A
N494        C495   1.361       .  A
N494        C601   1.443       .  S
C495        C496   1.383       .  A
C495       C1293   1.483       .  S
C496        C497   1.372       .  A
C496        H499   1.082       .  S
C497        C498   1.380       .  A
C497        H500   1.082       .  S
C498        C550   1.477       .  S
C501        C502   1.408       .  A
C501        C506   1.406       .  A
C501        H508   1.081       .  S
C502        C503   1.421       .  A
C503       C1292   1.409       .  A
C503       C1298   1.514       .  S
C504       C1291   1.410       .  A
C504       C1293   1.402       .  A
C504        H509   1.084   1_655  S
C505       C1292   1.401       .  A
C505        C506   1.418       .  A
C505       C1283   1.479       .  S
C506        C507   1.521       .  S
C507        F511   1.385       .  S
C507        F512   1.379       .  S
C507        F513   1.382       .  S
C510       C1291   1.515       .  S
C510        F514   1.384       .  S
C510        F515   1.382   1_655  S
C510        F516   1.384   1_655  S
C517        C518   1.404       .  A
C517        C522   1.414       .  A
C517        H524   1.084       .  S
C518        C519   1.426       .  A
C519        C520   1.400       .  A
C519       C1314   1.523       .  S
C520        C521   1.400       .  A
C520        H525   1.085       .  S
C521        C522   1.421       .  A
C522        C523   1.514       .  S
C523        F527   1.384       .  S
C523        F528   1.383       .  S
C523        F529   1.382       .  S
C526       C1307   1.525   1_455  S
C526        F530   1.379       .  S
C526        F531   1.384   1_455  S
C526        F532   1.383       .  S
C533        C534   1.401       .  A
C533        C538   1.409       .  A
C533        H540   1.085       .  S
C534        C535   1.418       .  A
C535        C536   1.403       .  A
C535        C542   1.520       .  S
C536        C537   1.406       .  A
C536        H541   1.084       .  S
C537        C538   1.420       .  A
C538        C539   1.514       .  S
C539        F543   1.384       .  S
C539        F544   1.382       .  S
C539        F545   1.382       .  S
C542        F546   1.383       .  S
C542        F547   1.381       .  S
C542        F548   1.384       .  S
C549        C550   1.401   1_455  A
C549        C554   1.408       .  A
C549        H556   1.082       .  S
C550        C551   1.417       .  A
C551        C552   1.403       .  A
C551       C1346   1.520       .  S
C552        C553   1.400   1_655  A
C552       H1345   1.084       .  S
C553        C554   1.419       .  A
C554        C555   1.517       .  S
C555        F559   1.385       .  S
C555        F560   1.383       .  S
C555        F561   1.381       .  S
H557       C1340   1.084       .  S
C558       C1339   1.521       .  S
C558        F562   1.381       .  S
C558        F563   1.381       .  S
C558        F564   1.385       .  S
C565        C566   1.402       .  A
C565        C570   1.402       .  A
C565        H572   1.084       .  S
C566        C567   1.418       .  A
C567        C568   1.405       .  A
C567        C574   1.517       .  S
C568        C569   1.403       .  A
C568        H573   1.081       .  S
C569        C570   1.420       .  A
C570        C571   1.520       .  S
C571        F575   1.383       .  S
C571        F576   1.383       .  S
C571        F577   1.381       .  S
C574        F578   1.382       .  S
C574        F579   1.380       .  S
C574        F580   1.385       .  S
C581       C1370   1.404       .  A
C581        C586   1.412       .  A
C581        H588   1.083       .  S
C582       C1369   1.405   1_455  A
C582        C583   1.413       .  A
C583        C584   1.402       .  A
C583        C590   1.517       .  S
C584        C585   1.406       .  A
C584        H589   1.082       .  S
C585       C1374   1.420   1_455  A
C586       C1373   1.422       .  A
C586        C587   1.519       .  S
C587        F591   1.385       .  S
C587        F592   1.383       .  S
C590        F594   1.385       .  S
C590        F595   1.382       .  S
C590        F596   1.380       .  S
C597        C598   1.401       .  A
C597        C602   1.408       .  A
C597        H604   1.085       .  S
C598        C599   1.417   1_455  A
C599        C600   1.409       .  A
C599       C1394   1.516       .  S
C600        C601   1.401       .  A
C600       H1393   1.080       .  S
C601        C602   1.420   1_655  A
C602        C603   1.517       .  S
C603        F607   1.384       .  S
C603        F608   1.382       .  S
C603        F609   1.381       .  S
H605       C1388   1.078       .  S
C606       C1387   1.517       .  S
C606        F610   1.382       .  S
C606        F611   1.381       .  S
C606        F612   1.385       .  S
C613        C614   1.412       .  A
C613        C618   1.410       .  A
C613        H620   1.083       .  S
C614        C615   1.425       .  A
C615        C616   1.414   1_455  A
C615        C622   1.517   1_455  S
C616        C617   1.406   1_655  A
C616        H621   1.081       .  S
C617        C618   1.422       .  A
C618        C619   1.515       .  S
C619        F623   1.385       .  S
C619        F624   1.373       .  S
C619       F1413   1.383       .  S
C622        F626   1.383   1_655  S
C622        F628   1.385       .  S
F625       C1407   1.383       .  S
C629        C630   1.399       .  A
C629        C634   1.413       .  A
C629        H636   1.078       .  S
C630        C631   1.415       .  A
C631        C632   1.410       .  A
C631        C638   1.515       .  S
C632        C633   1.409       .  A
C632        H637   1.083       .  S
C633        C634   1.433       .  A
C634        C635   1.522       .  S
C635        F639   1.385       .  S
C635        F640   1.384       .  S
C635        F641   1.383       .  S
C638        F642   1.381       .  S
C638        F643   1.383       .  S
C638        F644   1.385       .  S
C645        C646   1.405       .  A
C645        C650   1.415       .  A
C645        H652   1.082       .  S
C646        C647   1.415       .  A
C647        C648   1.407       .  A
C647        C654   1.520       .  S
C648        C649   1.414       .  A
C648        H653   1.081       .  S
C649        C650   1.424       .  A
C650        C651   1.518       .  S
C651        F655   1.383       .  S
C651       F1444   1.383   1_565  S
C651       F1445   1.385   1_565  S
C654        F658   1.378       .  S
C654        F659   1.380       .  S
C654        F660   1.385       .  S
F656       C1439   1.382   1_545  S
F657       C1439   1.385   1_545  S
C661        C662   1.402       .  A
C661        C666   1.407       .  A
C661        H668   1.075       .  S
C662        C663   1.418       .  A
C663        C664   1.402       .  A
C663        C670   1.517       .  S
C664        C665   1.403       .  A
C664        H669   1.084       .  S
C665        C666   1.421       .  A
C666        C667   1.521       .  S
C667        F671   1.386       .  S
C667        F672   1.382       .  S
C667       F1461   1.382       .  S
C670        F674   1.383       .  S
C670        F675   1.383       .  S
C670        F676   1.384   1_565  S
F673       C1455   1.382       .  S
C677        C678   1.402       .  A
C677        C682   1.413       .  A
C677        H684   1.085       .  S
C678        C679   1.421       .  A
C679        C680   1.399       .  A
C679        C686   1.520       .  S
C680        C681   1.402       .  A
C680        H685   1.084       .  S
C681        C682   1.423       .  A
C682        C683   1.515       .  S
C683        F687   1.384       .  S
C683        F688   1.382       .  S
C683        F689   1.382       .  S
C686        F690   1.383       .  S
C686        F691   1.380       .  S
C686        F692   1.384       .  S
C693        C694   1.400       .  A
C693        C698   1.411       .  A
C693        H700   1.080       .  S
C694        C695   1.421       .  A
C695        C696   1.408       .  A
C695        C702   1.518       .  S
C696        C697   1.403       .  A
C696        H701   1.085       .  S
C697        C698   1.422       .  A
C698        C699   1.519   1_455  S
C699       F1491   1.385       .  S
C699       F1492   1.382       .  S
C699        F705   1.383       .  S
C702        F706   1.383       .  S
C702        F707   1.380       .  S
C702        F708   1.383       .  S
F703       C1487   1.385       .  S
F704       C1487   1.382       .  S
C709        C710   1.396       .  A
C709        C714   1.412       .  A
C709        H716   1.083       .  S
C710        C711   1.416       .  A
C711        C712   1.404       .  A
C711        C718   1.522       .  S
C712        C713   1.408       .  A
C712        H717   1.082       .  S
C713        C714   1.433       .  A
C714        C715   1.520       .  S
C715        F719   1.385   1_565  S
C715        F720   1.382   1_565  S
C715        F721   1.382       .  S
C718        F722   1.381       .  S
C718        F723   1.382       .  S
C718        F724   1.385       .  S
C725        C726   1.401       .  A
C725        C730   1.408       .  A
C725        H732   1.082       .  S
C726        C727   1.416       .  A
C727        C728   1.406       .  A
C727        C734   1.519       .  S
C728        C729   1.407       .  A
C728        H733   1.081       .  S
C729        C730   1.418       .  A
C730        C731   1.512       .  S
C731        F735   1.384       .  S
C731        F736   1.383       .  S
C731        F737   1.381       .  S
C734        F738   1.380       .  S
C734        F739   1.382       .  S
C734        F740   1.385       .  S
C741        C742   1.403       .  A
C741        C746   1.410       .  A
C741        H748   1.082       .  S
C742        C743   1.419       .  A
C743        C744   1.413       .  A
C743        C750   1.514       .  S
C744        C745   1.402       .  A
C744        H749   1.083       .  S
C745        C746   1.415       .  A
C746        C747   1.516       .  S
C747        F751   1.384       .  S
C747        F752   1.383       .  S
C747        F753   1.383       .  S
C750       F1542   1.380       .  S
C750        F755   1.382       .  S
C750        F756   1.385   1_455  S
F754       C1538   1.381       .  S
C757        C758   1.399       .  A
C757        C762   1.407       .  A
C757        H764   1.081       .  S
C758        C759   1.415       .  A
C759        C760   1.401       .  A
C759        C766   1.519       .  S
C760        C761   1.403       .  A
C760        H765   1.085       .  S
C761        C762   1.422       .  A
C762        C763   1.519       .  S
C763       F1555   1.385   1_455  S
C763       F1556   1.383       .  S
C763        F769   1.382       .  S
C766        F770   1.383       .  S
C766        F771   1.383       .  S
C766        F772   1.384       .  S
F767       C1551   1.385       .  S
F768       C1551   1.382       .  S
C773        C774   1.403       .  A
C773        C778   1.414       .  A
C773        H780   1.084       .  S
C774        C775   1.418       .  A
C775        C776   1.401       .  A
C775        C782   1.520       .  S
C776        C777   1.408       .  A
C776        H781   1.082       .  S
C777        C778   1.425       .  A
C778        C779   1.516       .  S
C779        F783   1.385       .  S
C779        F784   1.382       .  S
C779        F785   1.383       .  S
C782        F786   1.384       .  S
C782        F787   1.381       .  S
C782        F788   1.383       .  S
N789        C793   1.358       .  A
N789        C790   1.365       .  A
N789       C1136   1.446       .  S
C790        C791   1.386       .  A
C790       C1168   1.487       .  S
C791        C792   1.370       .  A
C791        H794   1.082       .  S
C792        C793   1.378       .  A
C792        H795   1.082       .  S
C793       C1152   1.478       .  S
N796        C800   1.359       .  A
N796        C797   1.364       .  A
N796       C1088   1.443       .  S
C797        C798   1.383       .  A
C797       C1120   1.489       .  S
C798        C799   1.373       .  A
C798        H801   1.082       .  S
C799        C800   1.381       .  A
C799        H802   1.082       .  S
C800       C1104   1.484       .  S
C803        N804   1.361       .  A
C803        N808   1.365       .  A
C803       C1123   1.501       .  S
N804        C805   1.360       .  A
C805        N806   1.360       .  A
C805       C1075   1.483       .  S
N806        C807   1.359       .  A
C807        N808   1.365       .  A
C807       C1171   1.505       .  S
N809        C813   1.362       .  A
N809        C810   1.360       .  A
N809       C1040   1.440       .  S
C810        C811   1.383       .  A
C810       C1072   1.486       .  S
C811        C812   1.373       .  A
C811        H814   1.082       .  S
C812        C813   1.383       .  A
C812        H815   1.081       .  S
C813       C1056   1.494       .  S
O816       Ni822   1.946   1_556  S
O816        C837   1.274       .  A
O817       Ni840   1.920       .  S
O817        C826   1.273       .  A
O818       Ni822   1.921       .  S
O818      Ni1234   1.924   1_545  S
O818      Ni1228   1.913   1_544  S
O818        H841   0.965   1_554  S
C819       C1059   1.485       .  S
C819        O836   1.268       .  A
C819        O828   1.274       .  A
O820       Ni839   1.931       .  S
O820        C826   1.272       .  A
O821       Ni839   1.912   1_556  S
O821        C823   1.272       .  A
Ni822       O825   1.928       .  S
Ni822       O827   1.910       .  S
C823       C1107   1.506       .  S
C823        O833   1.270       .  A
O824      Ni1234   1.929   1_545  S
O824        C830   1.278       .  A
O825        C830   1.271       .  A
C826        C992   1.480       .  S
O827        C829   1.274       .  A
C829       C1008   1.514       .  S
C829        O835   1.281       .  A
C830       C1027   1.509       .  S
H831        O832   0.966       .  S
O832       Ni840   1.917       .  S
O832       Ni834   1.905   1_554  S
O832       Ni839   1.924       .  S
O833       Ni834   1.939       .  S
Ni834      O1232   1.892       .  S
Ni834      O1212   1.915   1_556  S
O835      Ni1234   1.957   1_545  S
C837       C1155   1.490       .  S
C837        O838   1.258       .  A
O838      Ni1228   1.893   1_545  S
Ni840      O1218   1.922       .  S
Ni840      O1229   1.958       .  S
Ni840      O1212   1.921       .  S
O842       Ni848   1.936       .  S
O842        C863   1.272       .  A
O843      Ni1260   1.921   1_545  S
O843        C852   1.273       .  A
O844       Ni848   1.910       .  S
O844       Ni866   1.913       .  S
O844       Ni860   1.903       .  S
O844        H867   0.967       .  S
C845        C960   1.484       .  S
C845        O862   1.265   1_545  A
C845        O854   1.270       .  A
O846       Ni865   1.921       .  S
O846        C852   1.270       .  A
O847       Ni865   1.901       .  S
O847        C849   1.270       .  A
Ni848       O853   1.907       .  S
C849        C979   1.484       .  S
C849        O859   1.274       .  A
O850        C856   1.278       .  A
O851        C856   1.276       .  A
C852       C1139   1.479       .  S
O853        C855   1.269       .  A
O854       Ni865   1.934       .  S
C855       C1091   1.487       .  S
C855        O861   1.277       .  A
C856       C1043   1.497       .  S
H857        O858   0.966       .  S
O858      Ni1260   1.936   1_545  S
O858      Ni1254   1.915   1_545  S
O858       Ni865   1.926       .  S
O859      Ni1254   1.943   1_545  S
Ni860      O1253   1.928       .  S
Ni860       O864   1.896       .  S
Ni860      O1256   1.898       .  S
Ni860      O1252   1.909       .  S
O861       Ni866   1.943       .  S
O862      Ni1254   1.901       .  S
C863        C947   1.482       .  S
C863        O864   1.260       .  A
Ni866      O1237   1.926       .  S
Ni866      O1252   1.924       .  S
N868        C872   1.363       .  A
N868        C869   1.361       .  A
N868       C1024   1.450       .  S
C869        C870   1.380       .  A
C869        C928   1.478       .  S
C870        C871   1.369       .  A
C870        H873   1.082       .  S
C871        C872   1.383       .  A
C871        H874   1.082       .  S
C872        C963   1.483       .  S
N875        C879   1.365       .  A
N875       C1011   1.455       .  S
C876        C877   1.384       .  A
C876        C912   1.485       .  S
C877        H880   1.082       .  S
C878        C879   1.378       .  A
C878        H881   1.082       .  S
C879        C976   1.480       .  S
C882        N883   1.364       .  A
C882        N887   1.362       .  A
C882        C915   1.498       .  S
N883        C884   1.364       .  A
C884        N885   1.361       .  A
C884        C931   1.492       .  S
N885        C886   1.360       .  A
C886        N887   1.359       .  A
C886        C896   1.499       .  S
N888        C892   1.356       .  A
N888        C889   1.361       .  A
N888        C995   1.444       .  S
C889        C890   1.383       .  A
C890        C891   1.372       .  A
C890        H893   1.082       .  S
C891        C892   1.381       .  A
C891        H894   1.082       .  S
C892        C944   1.478       .  S
C895        C896   1.407       .  A
C895        C900   1.406       .  A
C895        H902   1.080       .  S
C896        C897   1.421       .  A
C898        H903   1.084       .  S
C899        C900   1.418       .  A
C900        C901   1.520       .  S
C901        F905   1.385       .  S
C901        F906   1.379       .  S
C901        F907   1.382       .  S
C904        F908   1.384       .  S
C904        F909   1.383       .  S
C904        F910   1.384       .  S
C911        C912   1.403       .  A
C911        C916   1.414       .  A
C911        H918   1.084       .  S
C912        C913   1.423       .  A
C913        C914   1.400       .  A
C914        C915   1.405       .  A
C914        H919   1.084       .  S
C915        C916   1.424       .  A
C916        C917   1.514       .  S
C917        F921   1.384       .  S
C917        F922   1.381       .  S
C917        F923   1.382       .  S
C920        F924   1.379       .  S
C920        F925   1.384       .  S
C920        F926   1.384       .  S
C927        C928   1.403       .  A
C927        C932   1.411       .  A
C927        H934   1.085       .  S
C928        C929   1.419       .  A
C929        C930   1.403       .  A
C929        C936   1.520       .  S
C930        C931   1.405       .  A
C930        H935   1.083       .  S
C931        C932   1.419       .  A
C932        C933   1.513       .  S
C933        F937   1.384       .  S
C933        F938   1.381       .  S
C933        F939   1.383       .  S
C936        F940   1.384       .  S
C936        F941   1.381       .  S
C936        F942   1.383       .  S
C943        C944   1.399       .  A
C943        C948   1.408       .  A
C943        H950   1.082       .  S
C944        C945   1.418       .  A
C945        C946   1.402       .  A
C946        C947   1.401       .  A
C947        C948   1.422       .  A
C948        C949   1.517       .  S
C949        F953   1.385       .  S
C949        F954   1.382       .  S
C949        F955   1.383       .  S
C952        F956   1.381       .  S
C952        F957   1.381       .  S
C952        F958   1.385       .  S
C959        C960   1.402       .  A
C959        C964   1.404       .  A
C959        H966   1.085   1_545  S
C960        C961   1.420       .  A
C961        C962   1.404       .  A
C961        C968   1.516       .  S
C962        C963   1.402       .  A
C962        H967   1.080       .  S
C963        C964   1.421       .  A
C964        C965   1.519   1_545  S
C965        F969   1.384       .  S
C965        F970   1.383       .  S
C965        F971   1.382       .  S
C968        F972   1.382       .  S
C968        F973   1.381       .  S
C968        F974   1.385       .  S
C975        C980   1.412   1_655  A
C975        H982   1.083       .  S
C976        C977   1.414       .  A
C977        C978   1.402       .  A
C977        C984   1.517       .  S
C978        C979   1.404       .  A
C978        H983   1.082       .  S
C980        C981   1.518   1_445  S
C981        F985   1.385       .  S
C981        F986   1.383       .  S
C981       F1381   1.382       .  S
C984        F988   1.385       .  S
C984        F989   1.383       .  S
C984        F990   1.379       .  S
F987       C1375   1.382       .  S
C991        C992   1.399       .  A
C991        C996   1.407       .  A
C991        H998   1.085       .  S
C992        C993   1.415       .  A
C993        C994   1.411       .  A
C994        C995   1.403       .  A
C995        C996   1.423       .  A
C996        C997   1.518       .  S
C997       F1001   1.384       .  S
C997       F1002   1.383       .  S
C997       F1003   1.379       .  S
C1000      F1004   1.383       .  S
C1000      F1005   1.380       .  S
C1000      F1006   1.384       .  S
C1007      C1008   1.413       .  A
C1007      C1012   1.409       .  A
C1007      H1014   1.083       .  S
C1008      C1009   1.426       .  A
C1009      C1010   1.415       .  A
C1009      C1016   1.518   1_545  S
C1010      C1011   1.406       .  A
C1010      H1015   1.082       .  S
C1011      C1012   1.419       .  A
C1012      C1013   1.517       .  S
C1013      F1017   1.385       .  S
C1013      F1018   1.374       .  S
C1016      F1020   1.383       .  S
C1016      F1415   1.383       .  S
C1016      F1022   1.385       .  S
F1021      C1410   1.383       .  S
C1023      C1024   1.399       .  A
C1023      C1028   1.414       .  A
C1023      H1030   1.080       .  S
C1024      C1025   1.415       .  A
C1025      C1026   1.410       .  A
C1025      C1032   1.516   1_545  S
C1026      C1027   1.409       .  A
C1026      H1031   1.083   1_545  S
C1027      C1028   1.433       .  A
C1028      C1029   1.522       .  S
C1029      F1033   1.385       .  S
C1029      F1034   1.384       .  S
C1029      F1035   1.383       .  S
C1032      F1036   1.381       .  S
C1032      F1037   1.383   1_565  S
C1032      F1038   1.385       .  S
C1039      C1040   1.402       .  A
C1039      C1044   1.410       .  A
C1039      H1046   1.083       .  S
C1040      C1041   1.413       .  A
C1041      C1042   1.405       .  A
C1041      C1048   1.521       .  S
C1042      C1043   1.412       .  A
C1042      H1047   1.082       .  S
C1043      C1044   1.422       .  A
C1044      C1045   1.519       .  S
C1045      F1049   1.383       .  S
C1048      F1052   1.380       .  S
C1048      F1053   1.381       .  S
C1048      F1054   1.385       .  S
C1055      C1056   1.401       .  A
C1055      C1060   1.404       .  A
C1055      H1062   1.073       .  S
C1056      C1057   1.419       .  A
C1057      C1058   1.408       .  A
C1057      C1064   1.516       .  S
C1058      C1059   1.404       .  A
C1058      H1063   1.084       .  S
C1059      C1060   1.419       .  A
C1060      C1061   1.519       .  S
C1061      F1065   1.385       .  S
C1061      F1066   1.382       .  S
C1064      F1068   1.382       .  S
C1064      F1069   1.383       .  S
C1064      F1070   1.384       .  S
C1071      C1072   1.405       .  A
C1071      C1076   1.412       .  A
C1071      H1078   1.084       .  S
C1072      C1073   1.421       .  A
C1073      C1074   1.400       .  A
C1073      C1080   1.519       .  S
C1074      C1075   1.401       .  A
C1074      H1079   1.085       .  S
C1075      C1076   1.419       .  A
C1076      C1077   1.516       .  S
C1077      F1081   1.384       .  S
C1077      F1082   1.381       .  S
C1077      F1083   1.383       .  S
C1080      F1084   1.383       .  S
C1080      F1085   1.380       .  S
C1080      F1086   1.384       .  S
C1087      C1088   1.401       .  A
C1087      C1092   1.408       .  A
C1087      H1094   1.081       .  S
C1088      C1089   1.420       .  A
C1089      C1090   1.409       .  A
C1089      C1096   1.517       .  S
C1090      C1091   1.403       .  A
C1090      H1095   1.085       .  S
C1091      C1092   1.421       .  A
C1092      C1093   1.520       .  S
C1093      F1099   1.383       .  S
C1096      F1100   1.383       .  S
C1096      F1101   1.380       .  S
C1096      F1102   1.384       .  S
C1103      C1104   1.399       .  A
C1103      C1108   1.415       .  A
C1103      H1110   1.083       .  S
C1104      C1105   1.416       .  A
C1105      C1106   1.402       .  A
C1105      C1112   1.519       .  S
C1106      C1107   1.408       .  A
C1106      H1111   1.084       .  S
C1107      C1108   1.432       .  A
C1108      C1109   1.519       .  S
C1109      F1113   1.385       .  S
C1109      F1114   1.383       .  S
C1109      F1115   1.383       .  S
C1112      F1116   1.382       .  S
C1112      F1117   1.380       .  S
C1112      F1118   1.384       .  S
C1119      C1120   1.403       .  A
C1119      C1124   1.412       .  A
C1119      H1126   1.083       .  S
C1120      C1121   1.419       .  A
C1121      C1122   1.408       .  A
C1121      C1128   1.516       .  S
C1122      C1123   1.406       .  A
C1122      H1127   1.082       .  S
C1123      C1124   1.423       .  A
C1124      C1125   1.515       .  S
C1125      F1129   1.384       .  S
C1125      F1130   1.383       .  S
C1125      F1131   1.382       .  S
C1128      F1132   1.378       .  S
C1128      F1133   1.382       .  S
C1128      F1134   1.385       .  S
C1135      C1136   1.404       .  A
C1135      C1140   1.410       .  A
C1135      H1142   1.081       .  S
C1136      C1137   1.419       .  A
C1137      C1138   1.409       .  A
C1137      C1144   1.513       .  S
C1138      C1139   1.400       .  A
C1138      H1143   1.083       .  S
C1139      C1140   1.416       .  A
C1140      C1141   1.517       .  S
C1141      F1145   1.385       .  S
C1141      F1146   1.383       .  S
C1141      F1147   1.383       .  S
C1144      F1149   1.382       .  S
C1144      F1150   1.385       .  S
C1151      C1152   1.399       .  A
C1151      C1156   1.410       .  A
C1151      H1158   1.082       .  S
C1152      C1153   1.416       .  A
C1153      C1154   1.404       .  A
C1153      C1160   1.518       .  S
C1154      C1155   1.404       .  A
C1154      H1159   1.085       .  S
C1155      C1156   1.426       .  A
C1156      C1157   1.518       .  S
C1157      F1163   1.382       .  S
C1160      F1164   1.383       .  S
C1160      F1165   1.382       .  S
C1160      F1166   1.384       .  S
C1167      C1168   1.403       .  A
C1167      C1172   1.412       .  A
C1167      H1174   1.084       .  S
C1168      C1169   1.421       .  A
C1169      C1170   1.405       .  A
C1169      C1176   1.519       .  S
C1170      C1171   1.406       .  A
C1170      H1175   1.084       .  S
C1171      C1172   1.425       .  A
C1172      C1173   1.515       .  S
C1173      F1177   1.385       .  S
C1173      F1178   1.383       .  S
C1173      F1179   1.384       .  S
C1176      F1180   1.383       .  S
C1176      F1181   1.381       .  S
C1176      F1182   1.384       .  S
N1183      C1187   1.356       .  A
N1183      C1184   1.363       .  A
N1183      C1530   1.445       .  S
C1184      C1185   1.386       .  A
C1184      C1562   1.485       .  S
C1185      C1186   1.368       .  A
C1185      H1188   1.082       .  S
C1186      C1187   1.378       .  A
C1186      H1189   1.082       .  S
C1187      C1546   1.474       .  S
N1190      C1194   1.359       .  A
N1190      C1191   1.360       .  A
N1190      C1482   1.444       .  S
C1191      C1192   1.382       .  A
C1191      C1514   1.480       .  S
C1192      C1193   1.371       .  A
C1192      H1195   1.082       .  S
C1193      C1194   1.381       .  A
C1193      H1196   1.082       .  S
C1194      C1498   1.480       .  S
C1197      N1198   1.360       .  A
C1197      N1202   1.361       .  A
C1197      C1517   1.495       .  S
N1198      C1199   1.360       .  A
C1199      N1200   1.364       .  A
C1199      C1469   1.489       .  S
N1200      C1201   1.361       .  A
C1201      N1202   1.362       .  A
C1201      C1565   1.506       .  S
N1203      C1207   1.360       .  A
N1203      C1204   1.364       .  A
N1203      C1434   1.449       .  S
C1204      C1205   1.383       .  A
C1204      C1466   1.484       .  S
C1205      C1206   1.369       .  A
C1205      H1208   1.082       .  S
C1206      C1207   1.381       .  A
C1206      H1209   1.081       .  S
C1207      C1450   1.482       .  S
O1210     Ni1216   1.940   1_556  S
O1210      C1231   1.273       .  A
O1211     Ni1234   1.933       .  S
O1211      C1220   1.277       .  A
O1212     Ni1216   1.922       .  S
O1212      H1235   0.966   1_554  S
C1213      C1453   1.486       .  S
C1213      O1230   1.268       .  A
C1213      O1222   1.272       .  A
O1214     Ni1233   1.925       .  S
O1214      C1220   1.271       .  A
O1215     Ni1233   1.910   1_556  S
O1215      C1217   1.272       .  A
Ni1216     O1219   1.928       .  S
Ni1216     O1221   1.908       .  S
C1217      C1501   1.502       .  S
C1217      O1227   1.270       .  A
O1218      C1224   1.275       .  A
O1219      C1224   1.271       .  A
C1220      C1386   1.485       .  S
O1221      C1223   1.273       .  A
C1223      C1402   1.516       .  S
C1223      O1229   1.280       .  A
C1224      C1421   1.502       .  S
H1225      O1226   0.966       .  S
O1226     Ni1234   1.923       .  S
O1226     Ni1228   1.905   1_554  S
O1226     Ni1233   1.925       .  S
O1227     Ni1228   1.938       .  S
C1231      C1549   1.485       .  S
C1231      O1232   1.258       .  A
O1236     Ni1242   1.936       .  S
O1236      C1257   1.272       .  A
O1237      C1246   1.275       .  A
O1238     Ni1242   1.915       .  S
O1238     Ni1260   1.913       .  S
O1238     Ni1254   1.905       .  S
O1238      H1261   0.967       .  S
C1239      C1354   1.478       .  S
C1239      O1256   1.267       .  A
C1239      O1248   1.274       .  A
O1240     Ni1259   1.928       .  S
O1240      C1246   1.271       .  A
O1241     Ni1259   1.907       .  S
O1241      C1243   1.270       .  A
Ni1242     O1247   1.910       .  S
C1243      C1373   1.491       .  S
C1243      O1253   1.269       .  A
O1244      C1250   1.281       .  A
O1245      C1250   1.275       .  A
C1246      C1533   1.481       .  S
O1247      C1249   1.270       .  A
O1248     Ni1259   1.934       .  S
C1249      C1485   1.493       .  S
C1249      O1255   1.278       .  A
C1250      C1437   1.508       .  S
H1251      O1252   0.966       .  S
O1252     Ni1259   1.919       .  S
Ni1254     O1258   1.895       .  S
O1255     Ni1260   1.948       .  S
C1257      C1341   1.477       .  S
C1257      O1258   1.260       .  A
N1262      C1266   1.361       .  A
N1262      C1263   1.359       .  A
N1262      C1418   1.447       .  S
C1263      C1264   1.381       .  A
C1263      C1322   1.478       .  S
C1264      C1265   1.369       .  A
C1264      H1267   1.082       .  S
C1265      C1266   1.383       .  A
C1265      H1268   1.082       .  S
C1266      C1357   1.481       .  S
N1269      C1273   1.367       .  A
N1269      C1405   1.456       .  S
C1270      C1271   1.382       .  A
C1270      C1306   1.479       .  S
C1271      H1274   1.083       .  S
C1272      C1273   1.378       .  A
C1272      H1275   1.082       .  S
C1273      C1370   1.484       .  S
C1276      N1277   1.361       .  A
C1276      N1281   1.361       .  A
C1276      C1309   1.493       .  S
N1277      C1278   1.361       .  A
C1278      N1279   1.362       .  A
C1278      C1325   1.487       .  S
N1279      C1280   1.361       .  A
C1280      N1281   1.360       .  A
C1280      C1290   1.502       .  S
N1282      C1286   1.357       .  A
N1282      C1283   1.360       .  A
N1282      C1389   1.445       .  S
C1283      C1284   1.382       .  A
C1284      C1285   1.370       .  A
C1284      H1287   1.082       .  S
C1285      C1286   1.380       .  A
C1285      H1288   1.082       .  S
C1286      C1338   1.475       .  S
C1289      C1290   1.407       .  A
C1289      C1294   1.408       .  A
C1289      H1296   1.082       .  S
C1290      C1291   1.422       .  A
C1292      H1297   1.084       .  S
C1293      C1294   1.417       .  A
C1294      C1295   1.518       .  S
C1295      F1299   1.384       .  S
C1295      F1300   1.380       .  S
C1295      F1301   1.381       .  S
C1298      F1302   1.383       .  S
C1298      F1303   1.383       .  S
C1298      F1304   1.384       .  S
C1305      C1306   1.402       .  A
C1305      C1310   1.412       .  A
C1305      H1312   1.084       .  S
C1306      C1307   1.424       .  A
C1307      C1308   1.400       .  A
C1308      C1309   1.403       .  A
C1308      H1313   1.084       .  S
C1309      C1310   1.422       .  A
C1310      C1311   1.513       .  S
C1311      F1315   1.384       .  S
C1311      F1316   1.383       .  S
C1311      F1317   1.382       .  S
C1314      F1318   1.379       .  S
C1314      F1319   1.384       .  S
C1314      F1320   1.384       .  S
C1321      C1322   1.402       .  A
C1321      C1326   1.411       .  A
C1321      H1328   1.085       .  S
C1322      C1323   1.418       .  A
C1323      C1324   1.401       .  A
C1323      C1330   1.519       .  S
C1324      C1325   1.403       .  A
C1324      H1329   1.085       .  S
C1325      C1326   1.422       .  A
C1326      C1327   1.515       .  S
C1327      F1331   1.383       .  S
C1327      F1332   1.382       .  S
C1327      F1333   1.382       .  S
C1330      F1334   1.384       .  S
C1330      F1335   1.382       .  S
C1330      F1336   1.384       .  S
C1337      C1338   1.400       .  A
C1337      C1342   1.409       .  A
C1337      H1344   1.082       .  S
C1338      C1339   1.417       .  A
C1339      C1340   1.402       .  A
C1340      C1341   1.400       .  A
C1341      C1342   1.419       .  A
C1342      C1343   1.518       .  S
C1343      F1347   1.385       .  S
C1343      F1348   1.383       .  S
C1343      F1349   1.382       .  S
C1346      F1350   1.381       .  S
C1346      F1351   1.381       .  S
C1346      F1352   1.385       .  S
C1353      C1354   1.401       .  A
C1353      C1358   1.403       .  A
C1353      H1360   1.085       .  S
C1354      C1355   1.417       .  A
C1355      C1356   1.406       .  A
C1355      C1362   1.518       .  S
C1356      C1357   1.404       .  A
C1356      H1361   1.080       .  S
C1357      C1358   1.420       .  A
C1358      C1359   1.520       .  S
C1359      F1363   1.384       .  S
C1359      F1364   1.383       .  S
C1359      F1365   1.381       .  S
C1362      F1366   1.382       .  S
C1362      F1367   1.382       .  S
C1362      F1368   1.385       .  S
C1369      C1374   1.411       .  A
C1369      H1376   1.083       .  S
C1370      C1371   1.414       .  A
C1371      C1372   1.403       .  A
C1371      C1378   1.516       .  S
C1372      C1373   1.405       .  A
C1372      H1377   1.083       .  S
C1374      C1375   1.519       .  S
C1375      F1379   1.385       .  S
C1375      F1380   1.383       .  S
C1378      F1382   1.385       .  S
C1378      F1383   1.382       .  S
C1378      F1384   1.378       .  S
C1385      C1386   1.402       .  A
C1385      C1390   1.410       .  A
C1385      H1392   1.085       .  S
C1386      C1387   1.419       .  A
C1387      C1388   1.410       .  A
C1388      C1389   1.400       .  A
C1389      C1390   1.421       .  A
C1390      C1391   1.517       .  S
C1391      F1395   1.384       .  S
C1391      F1396   1.383       .  S
C1391      F1397   1.380       .  S
C1394      F1398   1.382       .  S
C1394      F1399   1.380       .  S
C1394      F1400   1.385       .  S
C1401      C1402   1.413       .  A
C1401      C1406   1.409       .  A
C1401      H1408   1.083       .  S
C1402      C1403   1.426       .  A
C1403      C1404   1.416       .  A
C1403      C1410   1.518       .  S
C1404      C1405   1.408       .  A
C1404      H1409   1.081       .  S
C1405      C1406   1.419       .  A
C1406      C1407   1.515       .  S
C1407      F1411   1.385       .  S
C1407      F1412   1.374       .  S
C1410      F1414   1.383       .  S
C1410      F1416   1.385       .  S
C1417      C1418   1.399       .  A
C1417      C1422   1.413       .  A
C1417      H1424   1.082       .  S
C1418      C1419   1.416       .  A
C1419      C1420   1.408       .  A
C1419      C1426   1.515       .  S
C1420      C1421   1.407       .  A
C1420      H1425   1.083       .  S
C1421      C1422   1.429       .  A
C1422      C1423   1.521       .  S
C1423      F1427   1.385       .  S
C1423      F1428   1.384       .  S
C1423      F1429   1.382       .  S
C1426      F1430   1.381       .  S
C1426      F1431   1.383       .  S
C1426      F1432   1.385       .  S
C1433      C1434   1.407       .  A
C1433      C1438   1.416       .  A
C1433      H1440   1.082       .  S
C1434      C1435   1.414       .  A
C1435      C1436   1.405       .  A
C1435      C1442   1.515       .  S
C1436      C1437   1.413       .  A
C1436      H1441   1.084       .  S
C1437      C1438   1.423       .  A
C1438      C1439   1.518       .  S
C1439      F1443   1.384       .  S
C1442      F1446   1.382       .  S
C1442      F1447   1.374       .  S
C1442      F1448   1.385       .  S
C1449      C1450   1.400       .  A
C1449      C1454   1.405       .  A
C1449      H1456   1.079       .  S
C1450      C1451   1.415       .  A
C1451      C1452   1.404       .  A
C1451      C1458   1.516       .  S
C1452      C1453   1.405       .  A
C1452      H1457   1.084       .  S
C1453      C1454   1.424       .  A
C1454      C1455   1.521       .  S
C1455      F1459   1.385       .  S
C1455      F1460   1.383       .  S
C1458      F1462   1.382       .  S
C1458      F1463   1.384       .  S
C1458      F1464   1.384   1_565  S
C1465      C1466   1.403       .  A
C1465      C1470   1.411       .  A
C1465      H1472   1.084       .  S
C1466      C1467   1.426       .  A
C1467      C1468   1.402       .  A
C1467      C1474   1.522       .  S
C1468      C1469   1.400       .  A
C1468      H1473   1.085       .  S
C1469      C1470   1.421       .  A
C1470      C1471   1.514       .  S
C1471      F1475   1.384       .  S
C1471      F1476   1.381       .  S
C1471      F1477   1.383       .  S
C1474      F1478   1.383       .  S
C1474      F1479   1.378       .  S
C1474      F1480   1.384       .  S
C1481      C1482   1.399       .  A
C1481      C1486   1.411       .  A
C1481      H1488   1.080       .  S
C1482      C1483   1.421       .  A
C1483      C1484   1.410       .  A
C1483      C1490   1.518       .  S
C1484      C1485   1.403       .  A
C1484      H1489   1.085       .  S
C1485      C1486   1.423       .  A
C1486      C1487   1.519       .  S
C1487      F1493   1.383       .  S
C1490      F1494   1.383       .  S
C1490      F1495   1.380       .  S
C1490      F1496   1.383       .  S
C1497      C1498   1.397       .  A
C1497      C1502   1.412       .  A
C1497      H1504   1.082       .  S
C1498      C1499   1.415       .  A
C1499      C1500   1.404       .  A
C1499      C1506   1.522       .  S
C1500      C1501   1.408       .  A
C1500      H1505   1.082       .  S
C1501      C1502   1.432       .  A
C1502      C1503   1.520       .  S
C1503      F1507   1.385   1_565  S
C1503      F1508   1.382   1_565  S
C1503      F1509   1.382       .  S
C1506      F1510   1.381       .  S
C1506      F1511   1.382       .  S
C1506      F1512   1.385       .  S
C1513      C1514   1.400       .  A
C1513      C1518   1.409       .  A
C1513      H1520   1.084       .  S
C1514      C1515   1.417       .  A
C1515      C1516   1.406       .  A
C1515      C1522   1.520       .  S
C1516      C1517   1.408       .  A
C1516      H1521   1.080       .  S
C1517      C1518   1.422       .  A
C1518      C1519   1.514       .  S
C1519      F1523   1.384       .  S
C1519      F1524   1.382       .  S
C1519      F1525   1.382       .  S
C1522      F1526   1.380       .  S
C1522      F1527   1.382       .  S
C1522      F1528   1.385       .  S
C1529      C1530   1.402       .  A
C1529      C1534   1.409       .  A
C1529      H1536   1.082       .  S
C1530      C1531   1.417       .  A
C1531      C1532   1.411       .  A
C1531      C1538   1.514       .  S
C1532      C1533   1.402       .  A
C1532      H1537   1.083       .  S
C1533      C1534   1.417       .  A
C1534      C1535   1.516       .  S
C1535      F1539   1.385       .  S
C1535      F1540   1.383       .  S
C1535      F1541   1.383       .  S
C1538      F1543   1.382       .  S
C1538      F1544   1.385       .  S
C1545      C1546   1.398       .  A
C1545      C1550   1.408       .  A
C1545      H1552   1.082       .  S
C1546      C1547   1.414       .  A
C1547      C1548   1.401       .  A
C1547      C1554   1.518       .  S
C1548      C1549   1.403       .  A
C1548      H1553   1.085       .  S
C1549      C1550   1.425       .  A
C1550      C1551   1.518       .  S
C1551      F1557   1.382       .  S
C1554      F1558   1.382       .  S
C1554      F1559   1.383       .  S
C1554      F1560   1.384       .  S
C1561      C1562   1.403       .  A
C1561      C1566   1.415       .  A
C1561      H1568   1.082       .  S
C1562      C1563   1.418       .  A
C1563      C1564   1.401       .  A
C1563      C1570   1.520       .  S
C1564      C1565   1.408       .  A
C1564      H1569   1.082       .  S
C1565      C1566   1.426       .  A
C1566      C1567   1.517       .  S
C1567      F1571   1.385       .  S
C1567      F1572   1.381       .  S
C1567      F1573   1.383       .  S
C1570      F1574   1.384       .  S
C1570      F1575   1.382       .  S
C1570      F1576   1.383       .  S
