geometry optimzed in LAMMPS
_audit_creation_date              2020-12-01 
_audit_creation_method            'lammps2cif' 
_symmetry_space_group_name_H-M    'P1' 
_symmetry_Int_Tables_number       1 
_symmetry_cell_setting            triclinic 
loop_ 
_symmetry_equiv_pos_as_xyz 
  x,y,z 
_cell_length_a                    46.14988056 
_cell_length_b                    46.32610591860686 
_cell_length_c                    52.379885847300315 
_cell_angle_alpha                 89.91257991907453 
_cell_angle_beta                  89.8659633398017 
_cell_angle_gamma                 120.17138343796063 
loop_ 
_atom_site_label 
_atom_site_type_symbol 
_atom_site_fract_x 
_atom_site_fract_y 
_atom_site_fract_z 
_atom_site_charge 
Zn1        Zn  0.81322182  0.19057338  0.15376028     1.49700
Zn2        Zn  0.88271470  0.18966113  0.15702710     1.49400
Zn3        Zn  0.83452391  0.16992852  0.20616503     1.49100
Zn4        Zn  0.81265863  0.12133397  0.15744946     1.49500
O5          O  0.83577933  0.16797781  0.16863219    -1.83600
O6          O  0.84658312  0.23190201  0.13376973    -0.74200
O7          O  0.91482266  0.20378861  0.18688803    -0.74000
O8          O  0.81038710  0.19440226  0.21829902    -0.73500
O9          O  0.89418808  0.23072941  0.13607440    -0.74200
O10         O  0.79396321  0.20596518  0.18165899    -0.73800
O11         O  0.88139604  0.19279901  0.22054422    -0.74400
O12         O  0.79866978  0.08982505  0.18755782    -0.73800
O13         O  0.89160670  0.15859789  0.13574771    -0.74500
O14         O  0.81167528  0.12312773  0.22128569    -0.73900
O15         O  0.84269127  0.11118694  0.13595608    -0.74400
O16         O  0.77146994  0.11059639  0.13688214    -0.74300
O17         O  0.77320262  0.15910206  0.13168182    -0.74100
C18         C  0.87769934  0.24450645  0.12867999     0.77700
C19         C  0.91045825  0.20379665  0.21089456     0.78200
C20         C  0.79498985  0.20635881  0.20593951     0.77200
C21         C  0.79974253  0.09410776  0.21160721     0.77500
C22         C  0.87337162  0.12813938  0.12938312     0.78700
C23         C  0.75920595  0.12772372  0.12787254     0.77700
C24         C  0.11682147  0.34771275  0.35373066     0.80800
N25         N  0.14771411  0.35071610  0.35154222    -0.77500
C26         C  0.15343095  0.33303428  0.33316273     0.83200
N27         N  0.12834261  0.31316573  0.31675697    -0.77500
C28         C  0.09764922  0.31025211  0.31903855     0.83300
N29         N  0.09217158  0.32716467  0.33763202    -0.79200
C30         C  0.64858609  0.88437675  0.34906766     0.80800
N31         N  0.64770399  0.85456746  0.34927936    -0.77500
C32         C  0.66747495  0.84906492  0.33284287     0.83200
N33         N  0.68842322  0.87388850  0.31642094    -0.77500
C34         C  0.68976972  0.90396663  0.31674668     0.83300
N35         N  0.66970750  0.90875009  0.33292681    -0.79200
C36         C  0.02305648  0.45106257  0.98561090     0.80800
N37         N  0.02174768  0.47972755  0.98491973    -0.77500
C38         C  0.00445818  0.48586553  0.00334514     0.83200
N39         N  0.98867921  0.46311468  0.02256875    -0.77500
C40         C  0.99072294  0.43477809  0.02340692     0.83300
N41         N  0.00766610  0.42913969  0.00485947    -0.79200
C42         C  0.54953715  0.97262457  0.99069322     0.80800
N43         N  0.57074056  0.98826248  0.01025447    -0.77500
C44         C  0.56663964  0.00905862  0.02596746     0.83200
N45         N  0.54014617  0.01385155  0.02238675    -0.77500
C46         C  0.51791513  0.99755748  0.00308122     0.83300
N47         N  0.52299904  0.97728108  0.98702763    -0.79200
Zn48       Zn  0.50169201  0.49958521  0.46445007     1.49700
Zn49       Zn  0.52309329  0.54779993  0.51340710     1.49400
Zn50       Zn  0.45315693  0.47760593  0.51296507     1.49100
Zn51       Zn  0.52416230  0.48021342  0.51752471     1.49500
O52         O  0.50040541  0.50121356  0.50202889    -1.83600
O53         O  0.52559130  0.54671252  0.44950026    -0.74200
O54         O  0.49131745  0.55668750  0.53334950    -0.74000
O55         O  0.42069712  0.46207462  0.48281155    -0.73500
O56         O  0.53903680  0.57965460  0.48349770    -0.74200
O57         O  0.45500623  0.47583398  0.44948720    -0.73800
O58         O  0.44313583  0.50830780  0.53387592    -0.74400
O59         O  0.49233375  0.43817415  0.53759110    -0.73800
O60         O  0.56339770  0.55959023  0.53563064    -0.74500
O61         O  0.44356827  0.43673686  0.53385084    -0.73900
O62         O  0.56397232  0.51216336  0.53949107    -0.74400
O63         O  0.54349350  0.46581890  0.48974733    -0.74300
O64         O  0.52520103  0.47466257  0.45286465    -0.74100
C65         C  0.53838159  0.57570704  0.45942109     0.77700
C66         C  0.46063630  0.53908096  0.53975746     0.78200
C67         C  0.42554748  0.46288215  0.45879598     0.77200
C68         C  0.46091803  0.42413641  0.54191706     0.77500
C69         C  0.57659066  0.54314592  0.54427664     0.78700
C70         C  0.54141140  0.46394033  0.46556744     0.77700
Zn71       Zn  0.67000034  0.83666451  0.87065492     1.49700
Zn72       Zn  0.64418941  0.78954417  0.82133802     1.49400
Zn73       Zn  0.64268751  0.85815796  0.82205328     1.49100
Zn74       Zn  0.71286336  0.85959392  0.81872531     1.49500
O75         O  0.66732431  0.83595992  0.83319882    -1.83600
O76         O  0.64621614  0.78976001  0.88489425    -0.74200
O77         O  0.60375980  0.77989062  0.80016134    -0.74000
O78         O  0.62428491  0.87115382  0.85246826    -0.73500
O79         O  0.62684725  0.75671572  0.85097703    -0.74200
O80         O  0.64668916  0.85968583  0.88574692    -0.73800
O81         O  0.60295089  0.82751207  0.79991656    -0.74400
O82         O  0.72190565  0.90100198  0.79924792    -0.73800
O83         O  0.67573022  0.78049797  0.80023907    -0.74500
O84         O  0.67345112  0.90031521  0.80215840    -0.73900
O85         O  0.72253540  0.82969744  0.79648377    -0.74400
O86         O  0.74682882  0.87497754  0.84649556    -0.74300
O87         O  0.71820257  0.85994457  0.88302779    -0.74100
C88         C  0.62996658  0.76077325  0.87506107     0.77700
C89         C  0.59036065  0.79698871  0.79353506     0.78200
C90         C  0.62875389  0.87085942  0.87644468     0.77200
C91         C  0.70385568  0.91402485  0.79467235     0.77500
C92         C  0.70556990  0.79854498  0.79183470     0.78700
C93         C  0.74576623  0.87359796  0.87070281     0.77700
C94         C  0.78604713  0.68890875  0.68669275     0.80800
N95         N  0.76270486  0.67222771  0.66857886    -0.77500
C96         C  0.76704196  0.65375025  0.65066816     0.83200
N97         N  0.79534351  0.65148090  0.65104052    -0.77500
C98         C  0.81945146  0.66842049  0.66904871     0.83300
N99         N  0.81467956  0.68721994  0.68690623    -0.79200
C100        C  0.76420354  0.11565073  0.64771713     0.92200
N101        N  0.79373743  0.14524230  0.64752112    -0.77500
C102        C  0.81695784  0.15184101  0.66619413     0.83200
N103        N  0.81024224  0.12882281  0.68499711    -0.77500
C104        C  0.78044509  0.09975825  0.68540833     0.83300
N105        N  0.75789166  0.09347906  0.66675549    -0.79200
C106        C  0.56710895  0.55375285  0.01808578     0.80800
N107        N  0.57112175  0.57849336  0.00212875    -0.77500
C108        C  0.54911771  0.57292445  0.98319502     0.83200
N109        N  0.52184843  0.54198116  0.98043473    -0.77500
C110        C  0.51680100  0.51682587  0.99675970     0.83300
N111        N  0.53978553  0.52270132  0.01547046    -0.79200
Zn112      Zn  0.97497512  0.52237797  0.48808898     1.49700
Zn113      Zn  0.04537990  0.52348148  0.48377556     1.49400
Zn114      Zn  0.00189509  0.50096555  0.53626133     1.49100
Zn115      Zn  0.97622665  0.45353252  0.48686480     1.49500
O116        O  0.99971079  0.50013727  0.49873138    -1.83600
O117        O  0.00478325  0.56309434  0.46665325    -0.74200
O118        O  0.07923236  0.54165714  0.51191731    -0.74000
O119        O  0.97694362  0.52258045  0.55184176    -0.73500
O120        O  0.05314157  0.56377216  0.46243048    -0.74200
O121        O  0.95772362  0.53725312  0.51838092    -0.73800
O122        O  0.04999690  0.52684513  0.54824956    -0.74400
O123        O  0.95942080  0.42081443  0.51663387    -0.73800
O124        O  0.05571660  0.49196927  0.46306750    -0.74500
O125        O  0.98104327  0.45396420  0.55034354    -0.73900
O126        O  0.00742754  0.44401732  0.46581626    -0.74400
O127        O  0.93592427  0.44371214  0.46538206    -0.74300
O128        O  0.93486544  0.49117268  0.46685516    -0.74100
C129        C  0.03462777  0.57638895  0.45797852     0.77700
C130        C  0.07771980  0.54126467  0.53615928     0.78200
C131        C  0.96072080  0.53566175  0.54244835     0.77200
C132        C  0.96438995  0.42493206  0.54059816     0.77500
C133        C  0.03772691  0.46090102  0.45809559     0.78700
C134        C  0.92248429  0.46102719  0.45954514     0.77700
Zn135      Zn  0.87938992  0.69199493  0.15278711     1.49700
Zn136      Zn  0.80954105  0.69081909  0.15264428     1.49400
Zn137      Zn  0.81054391  0.62163061  0.15122791     1.49100
Zn138      Zn  0.83196991  0.66618007  0.20238284     1.49500
O139        O  0.83277811  0.66757630  0.16479408    -1.83600
O140        O  0.88796991  0.73147280  0.13126778    -0.74200
O141        O  0.76811475  0.65874843  0.13287745    -0.74000
O142        O  0.84192154  0.61417999  0.12845039    -0.73500
O143        O  0.83932985  0.73041083  0.12985506    -0.74200
O144        O  0.88984263  0.66253022  0.13098988    -0.73800
O145        O  0.76790072  0.61060809  0.13164939    -0.74400
O146        O  0.81003595  0.61833804  0.21574455    -0.73800
O147        O  0.79473271  0.70868392  0.18229783    -0.74500
O148        O  0.79746474  0.58843353  0.18004206    -0.73900
O149        O  0.80645824  0.68781442  0.21643042    -0.74400
O150        O  0.87932621  0.69203394  0.21648405    -0.74300
O151        O  0.91231385  0.70995590  0.18220159    -0.74100
C152        C  0.87016988  0.74370245  0.12377271     0.77700
C153        C  0.75464291  0.62825099  0.12614128     0.78200
C154        C  0.87281218  0.63269637  0.12280184     0.77200
C155        C  0.79824067  0.59042983  0.20428129     0.77500
C156        C  0.79427931  0.70447803  0.20637238     0.78700
C157        C  0.90839318  0.70802580  0.20634986     0.77700
C158        C  0.68269479  0.77952739  0.31593880     0.80800
N159        N  0.66151876  0.75565659  0.33238033    -0.77500
C160        C  0.64261853  0.76130539  0.34908894     0.83200
N161        N  0.64494120  0.79177219  0.34952678    -0.77500
C162        C  0.66579222  0.81618228  0.33277261     0.83300
N163        N  0.68469401  0.80991578  0.31590650    -0.79200
C164        C  0.09345215  0.78627328  0.31668070     0.80800
N165        N  0.08723546  0.76287891  0.33466433    -0.77500
C166        C  0.11151275  0.76567788  0.35061447     0.83200
N167        N  0.14272789  0.79316131  0.34904636    -0.77500
C168        C  0.14931945  0.81754309  0.33138132     0.83300
N169        N  0.12461456  0.81371176  0.31495957    -0.79200
Zn170      Zn  0.50185608  0.00317199  0.45948715     1.49700
Zn171      Zn  0.52496302  0.97859648  0.50877999     1.49400
Zn172      Zn  0.52360996  0.04720427  0.51123557     1.49100
Zn173      Zn  0.45464734  0.97688437  0.50906935     1.49500
O174        O  0.50132595  0.00157469  0.49710714    -1.83600
O175        O  0.52700830  0.98151670  0.44501764    -0.74200
O176        O  0.56518270  0.00921538  0.53013494    -0.74000
O177        O  0.53778369  0.08058650  0.48265082    -0.73500
O178        O  0.54134277  0.96278709  0.47903243    -0.74200
O179        O  0.52442130  0.05102007  0.44671105    -0.73800
O180        O  0.56567692  0.05746931  0.53151558    -0.74400
O181        O  0.44363976  0.00664649  0.53032431    -0.73800
O182        O  0.49464141  0.93763833  0.52962245    -0.74500
O183        O  0.49147305  0.05508332  0.53297132    -0.73900
O184        O  0.44604500  0.93679303  0.53009037    -0.74400
O185        O  0.42190715  0.95897797  0.47955473    -0.74300
O186        O  0.45440639  0.97803320  0.44510189    -0.74100
C187        C  0.54055346  0.96606638  0.45495665     0.77700
C188        C  0.57852583  0.03951756  0.53727543     0.78200
C189        C  0.53677474  0.07878043  0.45841131     0.77200
C190        C  0.46036845  0.03671616  0.53812575     0.77500
C191        C  0.46396127  0.92409411  0.53617101     0.78700
C192        C  0.42546014  0.96157744  0.45539300     0.77700
Zn193      Zn  0.18886486  0.37919673  0.84515291     1.49700
Zn194      Zn  0.16642070  0.33395889  0.79397610     1.49400
Zn195      Zn  0.18862515  0.30911584  0.84275329     1.49100
Zn196      Zn  0.11987571  0.31034563  0.84465510     1.49500
O197        O  0.16602839  0.33326143  0.83157490    -1.83600
O198        O  0.20322549  0.41180285  0.81608837    -0.74200
O199        O  0.19077841  0.31130757  0.77912442    -0.74000
O200        O  0.22958298  0.34004924  0.86299850    -0.73500
O201        O  0.18891910  0.38160799  0.78043481    -0.74200
O202        O  0.23047265  0.38851293  0.86527083    -0.73800
O203        O  0.20372902  0.29130812  0.81303543    -0.74400
O204        O  0.11036515  0.27027672  0.86589372    -0.73800
O205        O  0.11868387  0.30907269  0.78093489    -0.74500
O206        O  0.15821407  0.26965484  0.86495646    -0.73900
O207        O  0.08668029  0.29336764  0.81582954    -0.74400
O208        O  0.11043675  0.34073311  0.86630610    -0.74300
O209        O  0.15828657  0.38912779  0.86721048    -0.74100
C210        C  0.20175758  0.40960233  0.79187421     0.77700
C211        C  0.20345803  0.29495459  0.78894196     0.78200
C212        C  0.24319944  0.37028640  0.87038713     0.77200
C213        C  0.12783464  0.25713506  0.87206737     0.77500
C214        C  0.08993770  0.29449268  0.79166059     0.78700
C215        C  0.12757723  0.37099786  0.87351196     0.77700
C216        C  0.31356009  0.21506111  0.68183728     0.80800
N217        N  0.31577196  0.18687032  0.68382493    -0.77500
C218        C  0.33530891  0.18141480  0.66699474     0.83200
N219        N  0.35305885  0.20472050  0.64858137    -0.77500
C220        C  0.35073349  0.23278498  0.64670305     0.83300
N221        N  0.33066537  0.23729199  0.66306715    -0.79200
C222        C  0.88596915  0.23731419  0.64952442     0.80800
N223        N  0.85586760  0.20834274  0.64909451    -0.77500
C224        C  0.84944543  0.18351455  0.66624835     0.83200
N225        N  0.87338071  0.18786303  0.68358432    -0.77500
C226        C  0.90358540  0.21649659  0.68350596     0.83300
N227        N  0.90950878  0.24085247  0.66654321    -0.79200
Zn228      Zn  0.33587007  0.16621956  0.20088192     1.49700
Zn229      Zn  0.31145202  0.18995055  0.15178731     1.49400
Zn230      Zn  0.38153882  0.19163777  0.14980672     1.49100
Zn231      Zn  0.31162434  0.12077561  0.15061015     1.49500
O232        O  0.33519145  0.16709745  0.16330988    -1.83600
O233        O  0.31222879  0.18978384  0.21564285    -0.74200
O234        O  0.34100172  0.22971431  0.12936569    -0.74000
O235        O  0.41451785  0.21041768  0.17883124    -0.73500
O236        O  0.29471764  0.20546032  0.18162427    -0.74200
O237        O  0.38379553  0.18989051  0.21415108    -0.73800
O238        O  0.38972515  0.23098793  0.12712090    -0.74400
O239        O  0.34345822  0.11281637  0.12932578    -0.73800
O240        O  0.27095296  0.15916948  0.13118507    -0.74500
O241        O  0.39226233  0.16062706  0.12955486    -0.73900
O242        O  0.27162589  0.11160435  0.12889589    -0.74400
O243        O  0.29363539  0.08649453  0.17961810    -0.74300
O244        O  0.31210051  0.11836103  0.21421504    -0.74100
C245        C  0.29698762  0.20363667  0.20573913     0.77700
C246        C  0.37103612  0.24290517  0.12117039     0.78200
C247        C  0.41203038  0.20698376  0.20299089     0.77200
C248        C  0.37423444  0.13018138  0.12290436     0.77500
C249        C  0.25828366  0.12916512  0.12359285     0.78700
C250        C  0.29631547  0.08963865  0.20380894     0.77700
C251        C  0.22012940  0.31369819  0.31481590     0.80800
N252        N  0.19060542  0.31381315  0.31498324    -0.77500
C253        C  0.18599672  0.33387872  0.33180053     0.83200
N254        N  0.21108680  0.35365026  0.34825340    -0.77500
C255        C  0.24068227  0.35394314  0.34762691     0.83300
N256        N  0.24474470  0.33391522  0.33106087    -0.79200
C257        C  0.21779062  0.90322418  0.31447848     0.80800
N258        N  0.18805668  0.87390000  0.31415711    -0.77500
C259        C  0.18237991  0.84889879  0.33098021     0.83200
N260        N  0.20686874  0.85350954  0.34798838    -0.77500
C261        C  0.23680835  0.88268467  0.34785847     0.83300
N262        N  0.24170757  0.90706606  0.33121794    -0.79200
C263        C  0.45001670  0.42965864  0.01106522     0.80800
N264        N  0.47928953  0.45933095  0.01220932    -0.77500
C265        C  0.48570648  0.48395299  0.99489024     0.83200
N266        N  0.46260254  0.47856997  0.97643880    -0.77500
C267        C  0.43369930  0.44859284  0.97508591     0.83300
N268        N  0.42770155  0.42460134  0.99246469    -0.79200
Zn269      Zn  0.19089321  0.87948516  0.84646835     1.49700
Zn270      Zn  0.12282292  0.80889993  0.84689677     1.49400
Zn271      Zn  0.16875932  0.83260581  0.79687217     1.49100
Zn272      Zn  0.19414384  0.81208934  0.84773410     1.49500
O273        O  0.16920250  0.83320006  0.83444659    -1.83600
O274        O  0.15960307  0.88708025  0.86841828    -0.74200
O275        O  0.08927648  0.79321352  0.81790002    -0.74000
O276        O  0.19174478  0.87992509  0.78283541    -0.73500
O277        O  0.11236272  0.83799172  0.86935814    -0.74200
O278        O  0.20520777  0.91235254  0.81712927    -0.73800
O279        O  0.12134212  0.80862187  0.78315401    -0.74400
O280        O  0.21142470  0.79730057  0.81837267    -0.73800
O281        O  0.11495452  0.76841953  0.86691127    -0.74500
O282        O  0.19231035  0.80887413  0.78306263    -0.73900
O283        O  0.16412543  0.77051316  0.86917990    -0.74400
O284        O  0.23519092  0.84472406  0.86809975    -0.74300
O285        O  0.23212562  0.89109270  0.86704127    -0.74100
C286        C  0.12935939  0.86864293  0.87561823     0.77700
C287        C  0.09253759  0.79472180  0.79371248     0.78200
C288        C  0.20422362  0.90872688  0.79300437     0.77200
C289        C  0.20849180  0.79693797  0.79422407     0.77500
C290        C  0.13290025  0.75629227  0.87439766     0.78700
C291        C  0.24683871  0.87531022  0.87383994     0.77700
C292        C  0.88282812  0.64383281  0.65272268     0.80800
N293        N  0.85457277  0.64621655  0.65214681    -0.77500
C294        C  0.85035540  0.66599030  0.66942203     0.83200
N295        N  0.87494368  0.68377058  0.68690157    -0.77500
C296        C  0.90343309  0.68185245  0.68701635     0.83300
N297        N  0.90688276  0.66178231  0.67005375    -0.79200
C298        C  0.34664243  0.11085367  0.64611876     0.80800
N299        N  0.32622175  0.08693695  0.66284243    -0.77500
C300        C  0.31044060  0.09338037  0.68185352     0.83200
N301        N  0.31445256  0.12446671  0.68390416    -0.77500
C302        C  0.33439258  0.14890125  0.66685430     0.83300
N303        N  0.35075084  0.14203028  0.64806155    -0.79200
C304        C  0.98372942  0.55220235  0.01815697     0.80800
N305        N  0.00081552  0.57437259  0.99934116    -0.77500
C306        C  0.01903199  0.56863905  0.98200927     0.83200
N307        N  0.02039150  0.54006412  0.98351983    -0.77500
C308        C  0.00298586  0.51708041  0.00218879     0.83300
N309        N  0.98450372  0.52320009  0.01955669    -0.79200
C310        C  0.45274277  0.02040341  0.01573704     0.80800
N311        N  0.48128397  0.01881392  0.01762644    -0.77500
C312        C  0.48771690  0.00070708  0.00024384     0.83200
N313        N  0.46534101  0.98427218  0.98100043    -0.77500
C314        C  0.43715452  0.98658393  0.97901790     0.83300
N315        N  0.43125593  0.00439273  0.99647886    -0.79200
C316        C  0.98367477  0.01756806  0.07192938     0.80800
N317        N  0.96643385  0.98367450  0.07159673    -0.77500
C318        C  0.98299010  0.96634833  0.07109845     0.83200
N319        N  0.01706408  0.98316898  0.07127303    -0.77500
C320        C  0.03451059  0.01710532  0.07159796     0.83300
N321        N  0.01768484  0.03414134  0.07208285    -0.79200
C322        C  0.65086903  0.35184947  0.40792563     0.80800
N323        N  0.63250290  0.31811872  0.40617795    -0.77500
C324        C  0.64798876  0.29990718  0.40341583     0.83200
N325        N  0.68208055  0.31567869  0.40254147    -0.77500
C326        C  0.70053366  0.34950960  0.40418134     0.83300
N327        N  0.68475475  0.36728405  0.40721499    -0.79200
C328        C  0.35035025  0.65111831  0.59381481     0.80800
N329        N  0.31639097  0.63447284  0.59326719    -0.77500
C330        C  0.29942397  0.65129361  0.59268755     0.83200
N331        N  0.31666952  0.68515297  0.59234721    -0.77500
C332        C  0.35072843  0.70216540  0.59287974     0.83300
N333        N  0.36753851  0.68504723  0.59340822    -0.79200
C334        C  0.02115190  0.98383210  0.92465279     0.80800
N335        N  0.98720363  0.96706547  0.92272257    -0.77500
C336        C  0.97023974  0.98394318  0.92198489     0.83200
N337        N  0.98741363  0.01775478  0.92293254    -0.77500
C338        C  0.02130893  0.03481059  0.92473828     0.83300
N339        N  0.03819986  0.01778760  0.92543030    -0.79200
C340        C  0.31720687  0.68448255  0.73965882     0.80800
N341        N  0.35116356  0.69988685  0.73978021    -0.77500
C342        C  0.36691919  0.68185111  0.73960974     0.83200
N343        N  0.34839612  0.64795230  0.73958731    -0.77500
C344        C  0.31431902  0.63221014  0.73948475     0.83300
N345        N  0.29880880  0.65059167  0.73972496    -0.79200
C346        C  0.68281559  0.31679278  0.26167951     0.80800
N347        N  0.64874761  0.30103909  0.26168131    -0.77500
C348        C  0.63275309  0.31896057  0.26208217     0.83200
N349        N  0.65111528  0.35288829  0.26198319    -0.77500
C350        C  0.68516946  0.36891901  0.26183969     0.83300
N351        N  0.70087207  0.35073337  0.26157888    -0.79200
C352        C  0.23417155  0.96848621  0.74217246     0.20900
C353        C  0.24275391  0.97939856  0.71692674    -0.39000
C354        C  0.25887077  0.01395618  0.71317077     0.19900
C355        C  0.26568274  0.03628662  0.73291567     0.22500
C356        C  0.25660424  0.02525714  0.75831949    -0.39500
C357        C  0.24078441  0.99044269  0.76216590     0.21300
N358        N  0.22014794  0.93691184  0.75064423    -0.32800
C359        C  0.21782489  0.93844372  0.77631351    -0.10300
C360        C  0.23039801  0.97145615  0.78428203    -0.29100
N361        N  0.28354705  0.06804649  0.72426768    -0.45700
C362        C  0.28838092  0.06552577  0.69896418    -0.05000
C363        C  0.27310839  0.03223324  0.69145649    -0.22400
H364        H  0.23831219  0.96226220  0.70141207     0.19500
H365        H  0.26249804  0.04249883  0.77400103     0.18200
H366        H  0.23214658  0.98036269  0.80362442     0.14500
H367        H  0.27383467  0.02266849  0.67276285     0.14400
H368        H  0.21302268  0.91561622  0.73961857     0.32600
H369        H  0.29326294  0.08987952  0.73506230     0.35300
C370        C  0.96293678  0.72823525  0.73620043     0.20900
C371        C  0.97489692  0.74050196  0.76086190    -0.39000
C372        C  0.00987900  0.75588044  0.76414077     0.19900
C373        C  0.03120138  0.75925946  0.74425780     0.22500
C374        C  0.01933858  0.74720970  0.71974290    -0.39500
C375        C  0.98455679  0.73138797  0.71662507     0.21300
N376        N  0.93078376  0.71111025  0.72820198    -0.32800
C377        C  0.93230114  0.70303016  0.70350873    -0.10300
C378        C  0.96535851  0.71529104  0.69575466    -0.29100
N379        N  0.06313325  0.77397290  0.75219583    -0.45700
C380        C  0.06238645  0.77977913  0.77745174    -0.05000
C381        C  0.02958632  0.76888168  0.78564106    -0.22400
H382        H  0.95819760  0.73752716  0.77647015     0.19500
H383        H  0.03593787  0.74918595  0.70434826     0.18200
H384        H  0.97412318  0.71214854  0.67734921     0.14500
H385        H  0.02127709  0.76993944  0.80477572     0.14400
H386        H  0.90925328  0.70438466  0.73902368     0.32600
H387        H  0.08411613  0.77913390  0.74117923     0.35300
C388        C  0.32507277  0.90613854  0.90668860     0.20900
C389        C  0.35372999  0.90631946  0.91626206    -0.39000
C390        C  0.37513309  0.93395716  0.93150464     0.19900
C391        C  0.36811356  0.95911605  0.93662163     0.22500
C392        C  0.34005947  0.95927040  0.92672294    -0.39500
C393        C  0.31889678  0.93189496  0.91162870     0.21300
N394        N  0.30008824  0.88234492  0.89260442    -0.32800
C395        C  0.27813896  0.89332202  0.88858593    -0.10300
C396        C  0.28916622  0.92418527  0.90008818    -0.29100
N397        N  0.39023025  0.98109579  0.95309119    -0.45700
C398        C  0.41185702  0.97033374  0.95878710    -0.05000
C399        C  0.40359855  0.94105860  0.94541730    -0.22400
H400        H  0.35848996  0.88606473  0.91270163     0.19500
H401        H  0.33457681  0.97886331  0.93111776     0.18200
H402        H  0.27679287  0.93878775  0.90031052     0.14500
H403        H  0.41538482  0.92599151  0.94691797     0.14400
H404        H  0.29806195  0.86008466  0.88616205     0.32600
H405        H  0.38988064  0.00174111  0.96073620     0.35300
C406        C  0.07696762  0.68250358  0.90921621     0.20900
C407        C  0.04634813  0.65964847  0.92046903    -0.39000
C408        C  0.04640524  0.63435971  0.93500709     0.19900
C409        C  0.07465567  0.63148599  0.93794178     0.22500
C410        C  0.10547733  0.65437900  0.92640245    -0.39500
C411        C  0.10554921  0.68018130  0.91200271     0.21300
N412        N  0.08335682  0.70948147  0.89545647    -0.32800
C413        C  0.11632889  0.72494988  0.88934356    -0.10300
C414        C  0.13116729  0.70737376  0.89927091    -0.29100
N415        N  0.06826037  0.60619936  0.95410246    -0.45700
C416        C  0.03589870  0.59350779  0.96160817    -0.05000
C417        C  0.02156273  0.61037562  0.95002416    -0.22400
H418        H  0.02427874  0.66203943  0.91870624     0.19500
H419        H  0.12790301  0.65282803  0.92907424     0.18200
H420        H  0.15713357  0.71383738  0.89770159     0.14500
H421        H  0.99666183  0.60653626  0.95312768     0.14400
H422        H  0.06624800  0.71714468  0.89075654     0.32600
H423        H  0.08519945  0.59914170  0.96059150     0.35300
C424        C  0.26363646  0.77314843  0.76669839     0.20900
C425        C  0.29437122  0.77441717  0.76346045    -0.39000
C426        C  0.29263015  0.74575117  0.75314668     0.19900
C427        C  0.26255232  0.71780453  0.74661004     0.22500
C428        C  0.23180808  0.71699628  0.74897168    -0.39500
C429        C  0.23354117  0.74581166  0.75926675     0.21300
N430        N  0.25837995  0.79547805  0.77899388    -0.32800
C431        C  0.22479315  0.78251849  0.77920773    -0.10300
C432        C  0.20833288  0.75174555  0.76686749    -0.29100
N433        N  0.26743556  0.69248324  0.74007001    -0.45700
C434        C  0.30085700  0.70458448  0.74242431    -0.05000
C435        C  0.31739132  0.73782204  0.75019926    -0.22400
H436        H  0.31774951  0.79544241  0.76986946     0.19500
H437        H  0.20816532  0.69492808  0.74448736     0.18200
H438        H  0.18156859  0.73488674  0.76552194     0.14500
H439        H  0.34369880  0.75339263  0.75472199     0.14400
H440        H  0.27638896  0.81750006  0.78771892     0.32600
H441        H  0.24908660  0.66820611  0.73520144     0.35300
C442        C  0.10547148  0.92235919  0.90600821     0.20900
C443        C  0.10926246  0.95339746  0.91266929    -0.39000
C444        C  0.07952314  0.95339937  0.91816846     0.19900
C445        C  0.04846098  0.92456016  0.91744495     0.22500
C446        C  0.04477881  0.89332550  0.91163688    -0.39500
C447        C  0.07447482  0.89339854  0.90577084     0.21300
N448        N  0.12922163  0.91663925  0.89665597    -0.32800
C449        C  0.11324600  0.88389612  0.89019862    -0.10300
C450        C  0.07913199  0.86840864  0.89597198    -0.29100
N451        N  0.02386283  0.93167634  0.92072141    -0.45700
C452        C  0.03931447  0.96529895  0.92337698    -0.05000
C453        C  0.07407994  0.97970658  0.92217957    -0.22400
H454        H  0.13333921  0.97619768  0.91197608     0.19500
H455        H  0.02041110  0.87100197  0.91017831     0.18200
H456        H  0.05995834  0.84303161  0.89167709     0.14500
H457        H  0.09271608  0.00600944  0.92260803     0.14400
H458        H  0.15439048  0.93434836  0.89353199     0.32600
H459        H  0.99811529  0.91483405  0.92008588     0.35300
C460        C  0.12115328  0.07537777  0.08209152     0.20900
C461        C  0.14865785  0.10595954  0.08950030    -0.39000
C462        C  0.17813608  0.10544569  0.09481107     0.19900
C463        C  0.18020124  0.07674382  0.09264093     0.22500
C464        C  0.15294057  0.04635934  0.08447357    -0.39500
C465        C  0.12327085  0.04675202  0.07950576     0.21300
N466        N  0.08954572  0.06860578  0.07859831    -0.32800
C467        C  0.07126725  0.03537605  0.07395867    -0.10300
C468        C  0.09148347  0.02090919  0.07413163    -0.29100
N469        N  0.20976977  0.08194027  0.10148097    -0.45700
C470        C  0.22647904  0.11409354  0.10949250    -0.05000
C471        C  0.20772797  0.12966688  0.10531854    -0.22400
H472        H  0.14669841  0.12805804  0.09234531     0.19500
H473        H  0.15415751  0.02365495  0.08351952     0.18200
H474        H  0.08367159  0.99476328  0.07197488     0.14500
H475        H  0.21396712  0.15463764  0.11085923     0.14400
H476        H  0.08072986  0.08534392  0.08031606     0.32600
H477        H  0.21741652  0.06427790  0.10309768     0.35300
C478        C  0.39084000  0.07799734  0.08277532     0.20900
C479        C  0.38230769  0.05047004  0.06717716    -0.39000
C480        C  0.40918531  0.04875791  0.05658946     0.19900
C481        C  0.44233667  0.07236830  0.06121919     0.22500
C482        C  0.45096103  0.10025139  0.07689506    -0.39500
C483        C  0.42380254  0.10220692  0.08738608     0.21300
N484        N  0.36953698  0.08504848  0.09484651    -0.32800
C485        C  0.38874336  0.11417058  0.10721640    -0.10300
C486        C  0.42285281  0.12585003  0.10299035    -0.29100
N487        N  0.46300802  0.06498195  0.04806338    -0.45700
C488        C  0.44245953  0.03676580  0.03487247    -0.05000
C489        C  0.40890826  0.02604785  0.03983512    -0.22400
H490        H  0.35650329  0.03188687  0.06328235     0.19500
H491        H  0.47675554  0.11917177  0.08037110     0.18200
H492        H  0.44397438  0.14834379  0.11046092     0.14500
H493        H  0.38709050  0.00479269  0.03167918     0.14400
H494        H  0.34337238  0.07090590  0.09455690     0.32600
H495        H  0.48916617  0.07876642  0.04738995     0.35300
C496        C  0.41793743  0.31697724  0.08309112     0.20900
C497        C  0.44627629  0.34394173  0.07152159    -0.39000
C498        C  0.44007337  0.36568325  0.05672238     0.19900
C499        C  0.40800876  0.36044253  0.05356144     0.22500
C500        C  0.37993050  0.33395169  0.06535407    -0.39500
C501        C  0.38615997  0.31256024  0.08023553     0.21300
N502        N  0.41680046  0.29253826  0.09784492    -0.32800
C503        C  0.38408557  0.27270830  0.10451854    -0.10300
C504        C  0.36432196  0.28450834  0.09388138    -0.29100
N505        N  0.40813078  0.38300435  0.03747917    -0.45700
C506        C  0.44046328  0.40318862  0.03035532    -0.05000
C507        C  0.46137734  0.39347047  0.04215197    -0.22400
H508        H  0.47118549  0.34750197  0.07364463     0.19500
H509        H  0.35492237  0.33000417  0.06280867     0.18200
H510        H  0.33749413  0.27387424  0.09579507     0.14500
H511        H  0.48811379  0.40422999  0.03949686     0.14400
H512        H  0.43699113  0.28965755  0.10317984     0.32600
H513        H  0.38727221  0.38428195  0.03134477     0.35300
C514        C  0.27146477  0.02904527  0.25404573     0.20900
C515        C  0.27263461  0.01766908  0.27858132    -0.39000
C516        C  0.25144355  0.98347930  0.28298681     0.19900
C517        C  0.23016583  0.96191653  0.26456281     0.22500
C518        C  0.22893005  0.97339949  0.23982086    -0.39500
C519        C  0.25066065  0.00783636  0.23524520     0.21300
N520        N  0.28983109  0.06042116  0.24520593    -0.32800
C521        C  0.28117570  0.05960094  0.22042045    -0.10300
C522        C  0.25678592  0.02712356  0.21341552    -0.29100
N523        N  0.21373926  0.93019449  0.27355243    -0.45700
C524        C  0.22524769  0.93189074  0.29769260    -0.05000
C525        C  0.24857130  0.96472323  0.30413102    -0.22400
H526        H  0.28944433  0.03417801  0.29308248     0.19500
H527        H  0.21287867  0.95669617  0.22509009     0.18200
H528        H  0.24512266  0.01880295  0.19492678     0.14500
H529        H  0.26256335  0.97354898  0.32172829     0.14400
H530        H  0.30753755  0.08117702  0.25541028     0.32600
H531        H  0.19695741  0.90870909  0.26359591     0.35300
C532        C  0.23079294  0.26504424  0.26596885     0.20900
C533        C  0.22978710  0.25230001  0.24132949    -0.39000
C534        C  0.25113382  0.23912229  0.23716627     0.19900
C535        C  0.27135821  0.23815924  0.25623215     0.22500
C536        C  0.27216363  0.25056599  0.28074781    -0.39500
C537        C  0.25138488  0.26414856  0.28473947     0.21300
N538        N  0.21511109  0.28130016  0.27442401    -0.32800
C539        C  0.22641186  0.29116851  0.29859150    -0.10300
C540        C  0.24879345  0.28062753  0.30557457    -0.29100
N541        N  0.28978204  0.22513590  0.24755359    -0.45700
C542        C  0.28167207  0.21794322  0.22262280    -0.05000
C543        C  0.25763718  0.22636084  0.21539909    -0.22400
H544        H  0.21439436  0.25352906  0.22629489     0.19500
H545        H  0.28860939  0.25060184  0.29546609     0.18200
H546        H  0.26260407  0.28574381  0.32325995     0.14500
H547        H  0.24657922  0.22366333  0.19672620     0.14400
H548        H  0.19913479  0.28674221  0.26404017     0.32600
H549        H  0.30724681  0.22182251  0.25788878     0.35300
C550        C  0.48979823  0.26241009  0.23291247     0.20900
C551        C  0.51816129  0.29344124  0.23829119    -0.39000
C552        C  0.54570204  0.29231024  0.24841079     0.19900
C553        C  0.54502721  0.26251236  0.25284700     0.22500
C554        C  0.51620395  0.23141893  0.24834839    -0.39500
C555        C  0.48864005  0.23253824  0.23818351     0.21300
N556        N  0.46199218  0.25692000  0.22055781    -0.32800
C557        C  0.44288041  0.22335966  0.21813739    -0.10300
C558        C  0.45843732  0.20721146  0.22907084    -0.29100
N559        N  0.57562535  0.26822064  0.25945644    -0.45700
C560        C  0.59595289  0.30188651  0.25919224    -0.05000
C561        C  0.57801645  0.31774598  0.25278916    -0.22400
H562        H  0.51937575  0.31677999  0.23356339     0.19500
H563        H  0.51590199  0.20811794  0.25116110     0.18200
H564        H  0.44984734  0.18075269  0.22880035     0.14500
H565        H  0.58783609  0.34420153  0.24986325     0.14400
H566        H  0.45682799  0.27490190  0.21336683     0.32600
H567        H  0.58255623  0.25027980  0.26279268     0.35300
C568        C  0.10472269  0.18011309  0.90344551     0.20900
C569        C  0.10885936  0.15336483  0.91111566    -0.39000
C570        C  0.07926761  0.12358475  0.91700224     0.19900
C571        C  0.04805070  0.12092041  0.91568945     0.22500
C572        C  0.04400384  0.14794793  0.90883167    -0.39500
C573        C  0.07352374  0.17755380  0.90260874     0.21300
N574        N  0.12833173  0.20955177  0.89381836    -0.32800
C575        C  0.11201378  0.22572378  0.88664800    -0.10300
C576        C  0.07785411  0.20675498  0.89215119    -0.29100
N577        N  0.02367580  0.08923652  0.91948211    -0.45700
C578        C  0.03937338  0.07146244  0.92303011    -0.05000
C579        C  0.07411799  0.09208133  0.92192729    -0.22400
H580        H  0.13309339  0.15499820  0.91094279     0.19500
H581        H  0.01951162  0.14549587  0.90693444     0.18200
H582        H  0.05849547  0.21253275  0.88743820     0.14500
H583        H  0.09291688  0.08468765  0.92292723     0.14400
H584        H  0.15368294  0.21744512  0.89113798     0.32600
H585        H  0.99788225  0.08003809  0.91850848     0.35300
C586        C  0.96058283  0.23047886  0.73438411     0.20900
C587        C  0.97207007  0.23527510  0.75974889    -0.39000
C588        C  0.00710244  0.25185263  0.76276337     0.19900
C589        C  0.02883599  0.26243614  0.74209137     0.22500
C590        C  0.01741170  0.25734825  0.71689040    -0.39500
C591        C  0.98262576  0.24124602  0.71389900     0.21300
N592        N  0.92880488  0.21806894  0.72622470    -0.32800
C593        C  0.93105629  0.22157015  0.70045251    -0.10300
C594        C  0.96410718  0.23572389  0.69215267    -0.29100
N595        N  0.06085574  0.27858493  0.74980376    -0.45700
C596        C  0.05974680  0.27852458  0.77562138    -0.05000
C597        C  0.02663695  0.26200448  0.78448065    -0.22400
H598        H  0.95511095  0.22774011  0.77589973     0.19500
H599        H  0.03444692  0.26637132  0.70076437     0.18200
H600        H  0.97347972  0.24271613  0.67283492     0.14500
H601        H  0.01807061  0.25842055  0.80410040     0.14400
H602        H  0.90730316  0.20956288  0.73748113     0.32600
H603        H  0.08218491  0.28937929  0.73817274     0.35300
C604        C  0.26605060  0.24718567  0.71208850     0.20900
C605        C  0.25184504  0.26771682  0.71383367    -0.39000
C606        C  0.23924208  0.26916654  0.73785974     0.19900
C607        C  0.24082069  0.25165180  0.75870571     0.22500
C608        C  0.25468740  0.23062166  0.75685311    -0.39500
C609        C  0.26716778  0.22895710  0.73262240     0.21300
N610        N  0.28138293  0.24336543  0.69168397    -0.32800
C611        C  0.29241080  0.22240796  0.69888285    -0.10300
C612        C  0.28370674  0.21249910  0.72433974    -0.29100
N613        N  0.22819909  0.25843387  0.77962766    -0.45700
C614        C  0.21838512  0.28026885  0.77194413    -0.05000
C615        C  0.22479636  0.28738608  0.74596453    -0.22400
H616        H  0.25128713  0.28209823  0.69772905     0.19500
H617        H  0.25620917  0.21707572  0.77315731     0.18200
H618        H  0.29010800  0.19689439  0.73558384     0.14500
H619        H  0.22009283  0.30415049  0.73462520     0.14400
H620        H  0.28486644  0.25506945  0.67396821     0.32600
H621        H  0.22650182  0.24893388  0.79799672     0.35300
C622        C  0.36700025  0.40946854  0.93046739     0.20900
C623        C  0.34158481  0.38203658  0.91752865    -0.39000
C624        C  0.31783100  0.38748768  0.90537172     0.19900
C625        C  0.31913274  0.41797853  0.90594584     0.22500
C626        C  0.34506692  0.44579153  0.91861888    -0.39500
C627        C  0.36910924  0.44035392  0.93083414     0.21300
N628        N  0.39068502  0.40951395  0.94519428    -0.32800
C629        C  0.40842354  0.44060457  0.95507336    -0.10300
C630        C  0.39605411  0.46089005  0.94633900    -0.29100
N631        N  0.29264007  0.41603220  0.89353637    -0.45700
C632        C  0.27458901  0.38406856  0.88507791    -0.05000
C633        C  0.28962519  0.36564404  0.89208202    -0.22400
H634        H  0.33987616  0.35785961  0.91757185     0.19500
H635        H  0.34598395  0.46957821  0.91944363     0.18200
H636        H  0.40409594  0.48628051  0.95197030     0.14500
H637        H  0.28087096  0.33959420  0.88819477     0.14400
H638        H  0.39386687  0.38914303  0.94906210     0.32600
H639        H  0.28711836  0.43512802  0.89106897     0.35300
C640        C  0.25046860  0.48587816  0.75805992     0.20900
C641        C  0.27996263  0.51216460  0.74747285    -0.39000
C642        C  0.28083455  0.54277308  0.74503186     0.19900
C643        C  0.25406493  0.54668508  0.75204387     0.22500
C644        C  0.22431268  0.52024290  0.76211373    -0.39500
C645        C  0.22373419  0.48986927  0.76509892     0.21300
N646        N  0.24503806  0.45565296  0.76523248    -0.32800
C647        C  0.21486968  0.44059713  0.77716281    -0.10300
C648        C  0.20075418  0.46101605  0.77738836    -0.29100
N649        N  0.26212436  0.57878213  0.74984350    -0.45700
C650        C  0.29442918  0.59555946  0.74173549    -0.05000
C651        C  0.30688207  0.57390246  0.73835366    -0.22400
H652        H  0.30140658  0.50953004  0.74292125     0.19500
H653        H  0.20391155  0.52360699  0.76858387     0.18200
H654        H  0.17783979  0.45622872  0.78679475     0.14500
H655        H  0.33208425  0.58033319  0.73295169     0.14400
H656        H  0.26163959  0.44662760  0.76353068     0.32600
H657        H  0.24708368  0.58887466  0.75470007     0.35300
C658        C  0.58491269  0.15438400  0.42364798     0.20900
C659        C  0.61396459  0.18019841  0.41217317    -0.39000
C660        C  0.61461865  0.21061451  0.40906260     0.19900
C661        C  0.58800704  0.21468724  0.41627818     0.22500
C662        C  0.55867449  0.18868995  0.42718418    -0.39500
C663        C  0.55837272  0.15858869  0.43088560     0.21300
N664        N  0.57973072  0.12444935  0.43135617    -0.32800
C665        C  0.54995582  0.10985350  0.44384075    -0.10300
C666        C  0.53582438  0.13024441  0.44392107    -0.29100
N667        N  0.59599939  0.24667874  0.41373068    -0.45700
C668        C  0.62811247  0.26328443  0.40522317    -0.05000
C669        C  0.64050322  0.24158133  0.40182844    -0.22400
H670        H  0.63530683  0.17744429  0.40750419     0.19500
H671        H  0.53848202  0.19229294  0.43381330     0.18200
H672        H  0.51305431  0.12567124  0.45345092     0.14500
H673        H  0.66568614  0.24796045  0.39640981     0.14400
H674        H  0.59615648  0.11524789  0.42945894     0.32600
H675        H  0.58113581  0.25688221  0.41885930     0.35300
C676        C  0.40430961  0.05160181  0.57572853     0.20900
C677        C  0.37537221  0.04267852  0.59009701    -0.39000
C678        C  0.37390407  0.06902235  0.60189927     0.19900
C679        C  0.39899377  0.10202783  0.59936668     0.22500
C680        C  0.42796069  0.11105261  0.58462066    -0.39500
C681        C  0.42975603  0.08445583  0.57311467     0.21300
N682        N  0.41202891  0.03083286  0.56357534    -0.32800
C683        C  0.44283685  0.05031022  0.55323341    -0.10300
C684        C  0.45478488  0.08401312  0.55873822    -0.29100
N685        N  0.39212981  0.12200486  0.61388128    -0.45700
C686        C  0.36270360  0.10126789  0.62591857    -0.05000
C687        C  0.35065508  0.06818586  0.61870961    -0.22400
H688        H  0.35585092  0.01690809  0.59259851     0.19500
H689        H  0.44806719  0.13669115  0.58292300     0.18200
H690        H  0.47854541  0.10523514  0.55306532     0.14500
H691        H  0.32840505  0.04618328  0.62569772     0.14400
H692        H  0.39732441  0.00483550  0.56263203     0.32600
H693        H  0.40714173  0.14777562  0.61629355     0.35300
C694        C  0.36423997  0.93243938  0.40544476     0.20900
C695        C  0.35247523  0.93076132  0.38055456    -0.39000
C696        C  0.31763068  0.91199543  0.37747885     0.19900
C697        C  0.29580476  0.89561403  0.39751229     0.22500
C698        C  0.30766722  0.89712820  0.42255014    -0.39500
C699        C  0.34273930  0.91634265  0.42571211     0.21300
N700        N  0.39621490  0.94997633  0.41335814    -0.32800
C701        C  0.39535644  0.94540303  0.43896339    -0.10300
C702        C  0.36239843  0.92445151  0.44738653    -0.29100
N703        N  0.26362976  0.88109258  0.38953179    -0.45700
C704        C  0.26533257  0.88882911  0.36432855    -0.05000
C705        C  0.29855437  0.90790905  0.35627869    -0.22400
H706        H  0.36920346  0.94399700  0.36480956     0.19500
H707        H  0.29084058  0.88511109  0.43849236     0.18200
H708        H  0.35393408  0.91670876  0.46679799     0.14500
H709        H  0.30752555  0.91865505  0.33753993     0.14400
H710        H  0.41730941  0.96470625  0.40205454     0.32600
H711        H  0.24202862  0.86821734  0.40071234     0.35300
C712        C  0.40986755  0.84553362  0.56587910     0.20900
C713        C  0.37897262  0.81809438  0.57305820    -0.39000
C714        C  0.37980596  0.78949142  0.58057799     0.19900
C715        C  0.40920383  0.78833892  0.58109948     0.22500
C716        C  0.44026503  0.81606559  0.57446045    -0.39500
C717        C  0.43939102  0.84463050  0.56670851     0.21300
N718        N  0.41518877  0.87448002  0.55583601    -0.32800
C719        C  0.44829887  0.89212825  0.55007232    -0.10300
C720        C  0.46432130  0.87445518  0.55677188    -0.29100
N721        N  0.40280297  0.75734243  0.58668109    -0.45700
C722        C  0.36907614  0.73864868  0.58955690    -0.05000
C723        C  0.35393755  0.75792594  0.58615732    -0.22400
H724        H  0.35576063  0.81846677  0.57171157     0.19500
H725        H  0.46314272  0.81496464  0.57416346     0.18200
H726        H  0.49029388  0.88171610  0.55356975     0.14500
H727        H  0.32740714  0.74953933  0.58626775     0.14400
H728        H  0.39714360  0.88126345  0.55222109     0.32600
H729        H  0.42013808  0.74913574  0.58740801     0.35300
C730        C  0.89536134  0.82114249  0.09193711     0.20900
C731        C  0.89251447  0.84869888  0.08432665    -0.39000
C732        C  0.92281115  0.87797115  0.07867656     0.19900
C733        C  0.95349303  0.87946293  0.08008677     0.22500
C734        C  0.95622030  0.85162308  0.08679866    -0.39500
C735        C  0.92603737  0.82256012  0.09282613     0.21300
N736        N  0.87101878  0.79201009  0.10160296    -0.32800
C737        C  0.88643858  0.77496888  0.10888568    -0.10300
C738        C  0.92063589  0.79302668  0.10333538    -0.29100
N739        N  0.97874490  0.91087078  0.07648578    -0.45700
C740        C  0.96411436  0.92963917  0.07294845    -0.05000
C741        C  0.92922635  0.90993738  0.07390661    -0.22400
H742        H  0.86874206  0.84805370  0.08443686     0.19500
H743        H  0.98026407  0.85308880  0.08879918     0.18200
H744        H  0.93942706  0.78649033  0.10813959     0.14500
H745        H  0.91110738  0.91820955  0.07279638     0.14400
H746        H  0.84588961  0.78496168  0.10433637     0.32600
H747        H  0.00435720  0.91922789  0.07751682     0.35300
C748        C  0.90080537  0.58529444  0.08693590     0.20900
C749        C  0.90009848  0.55672251  0.07686196    -0.39000
C750        C  0.92839491  0.56264727  0.06243241     0.19900
C751        C  0.95484803  0.59465961  0.05823879     0.22500
C752        C  0.95569216  0.62298879  0.06843599    -0.39500
C753        C  0.92778934  0.61705062  0.08297188     0.21300
N754        N  0.87727838  0.58667055  0.10131907    -0.32800
C755        C  0.88970379  0.61951324  0.10664217    -0.10300
C756        C  0.92113181  0.63914694  0.09549656    -0.29100
N757        N  0.97773911  0.59421392  0.04279377    -0.45700
C758        C  0.96631795  0.56176918  0.03702691    -0.05000
C759        C  0.93561797  0.54105836  0.04913866    -0.22400
H760        H  0.87904188  0.53183547  0.07987891     0.19500
H761        H  0.97649063  0.64793827  0.06505744     0.18200
H762        H  0.93703173  0.66600580  0.09650146     0.14500
H763        H  0.91999197  0.51425405  0.04738753     0.14400
H764        H  0.85446708  0.56656429  0.10741435     0.32600
H765        H  0.99965507  0.61499177  0.03605886     0.35300
C766        C  0.75515370  0.72578090  0.25608416     0.20900
C767        C  0.73997754  0.72249145  0.27990513    -0.39000
C768        C  0.72764535  0.74413753  0.28445868     0.19900
C769        C  0.73042389  0.76773363  0.26686853     0.22500
C770        C  0.74558422  0.77094512  0.24283233    -0.39500
C771        C  0.75763027  0.74885155  0.23809157     0.21300
N772        N  0.76826591  0.70762890  0.24716604    -0.32800
C773        C  0.77891745  0.71875113  0.22312710    -0.10300
C774        C  0.77268456  0.74447241  0.21670997    -0.29100
N775        N  0.71583485  0.78471547  0.27591595    -0.45700
C776        C  0.70341392  0.77131217  0.29925511    -0.05000
C777        C  0.71041694  0.74606851  0.30511061    -0.22400
H778        H  0.73747009  0.70401329  0.29377306     0.19500
H779        H  0.74738053  0.78888359  0.22873736     0.18200
H780        H  0.77835336  0.75804587  0.19884459     0.14500
H781        H  0.70316695  0.73061083  0.32209855     0.14400
H782        H  0.76942856  0.68842853  0.25673881     0.32600
H783        H  0.71355264  0.80338867  0.26654079     0.35300
C784        C  0.96805969  0.73915068  0.25725177     0.20900
C785        C  0.97895313  0.74209743  0.28255456    -0.39000
C786        C  0.01374170  0.75988098  0.28611357     0.19900
C787        C  0.03622756  0.77428311  0.26610845     0.22500
C788        C  0.02524454  0.77173401  0.24070426    -0.39500
C789        C  0.99027611  0.75336227  0.23706824     0.21300
N790        N  0.93632655  0.72176656  0.24887113    -0.32800
C791        C  0.93808150  0.72456338  0.22309011    -0.10300
C792        C  0.97136516  0.74421797  0.21497859    -0.29100
N793        N  0.06805083  0.78761275  0.27451608    -0.45700
C794        C  0.06552929  0.78105272  0.29995123    -0.05000
C795        C  0.03209604  0.76402741  0.30779608    -0.22400
H796        H  0.96161883  0.73019666  0.29824882     0.19500
H797        H  0.04262994  0.78209204  0.22486170     0.18200
H798        H  0.98050962  0.75038491  0.19554940     0.14500
H799        H  0.02245687  0.75435255  0.32666873     0.14400
H800        H  0.91477067  0.70825253  0.26003355     0.32600
H801        H  0.08990576  0.79874160  0.26347264     0.35300
C802        C  0.74829394  0.51429807  0.23825833     0.20900
C803        C  0.71851314  0.48827894  0.24878084    -0.39000
C804        C  0.71787164  0.45798498  0.25285217     0.19900
C805        C  0.74508031  0.45413238  0.24732604     0.22500
C806        C  0.77504500  0.48029809  0.23718474    -0.39500
C807        C  0.77544781  0.51037116  0.23262638     0.21300
N808        N  0.75388663  0.54426607  0.23018765    -0.32800
C809        C  0.78459862  0.55931865  0.21907889    -0.10300
C810        C  0.79889397  0.53904429  0.22024986    -0.29100
N811        N  0.73732072  0.42230484  0.25103177    -0.45700
C812        C  0.70478888  0.40556432  0.25863407    -0.05000
C813        C  0.69186513  0.42707055  0.26016419    -0.22400
H814        H  0.69682152  0.49089400  0.25227744     0.19500
H815        H  0.79586219  0.47693378  0.23195697     0.18200
H816        H  0.82240402  0.54388030  0.21190412     0.14500
H817        H  0.66641689  0.42061524  0.26474115     0.14400
H818        H  0.73717029  0.55321929  0.23093903     0.32600
H819        H  0.75277066  0.41227440  0.24744668     0.35300
C820        C  0.21299595  0.62259329  0.58101599     0.20900
C821        C  0.18488530  0.62545297  0.57512457    -0.39000
C822        C  0.15645609  0.59596482  0.56705902     0.19900
C823        C  0.15613974  0.56597714  0.56511261     0.22500
C824        C  0.18395979  0.56298607  0.57150857    -0.39500
C825        C  0.21233118  0.59242622  0.57948410     0.21300
N826        N  0.24390408  0.64739225  0.58691199    -0.32800
C827        C  0.26294710  0.63281597  0.58906753    -0.10300
C828        C  0.24405251  0.59853100  0.58480812    -0.29100
N829        N  0.12731531  0.54235655  0.55484420    -0.45700
C830        C  0.10916253  0.55736013  0.55028263    -0.05000
C831        C  0.12629439  0.59073113  0.55769041    -0.22400
H832        H  0.18557433  0.64914551  0.57567757     0.19500
H833        H  0.18399530  0.53976914  0.56934516     0.18200
H834        H  0.25279044  0.58078977  0.58425881     0.14500
H835        H  0.11852471  0.60904944  0.55519939     0.14400
H836        H  0.25180322  0.67277176  0.58843573     0.32600
H837        H  0.12086506  0.51789922  0.55028950     0.35300
C838        C  0.08115654  0.65248082  0.42203370     0.20900
C839        C  0.10934925  0.68014255  0.41091031    -0.39000
C840        C  0.10266248  0.70144546  0.39593642     0.19900
C841        C  0.07032501  0.69522229  0.39232694     0.22500
C842        C  0.04240108  0.66807893  0.40370332    -0.39500
C843        C  0.04908385  0.64710391  0.41869494     0.21300
N844        N  0.08037004  0.62793365  0.43645175    -0.32800
C845        C  0.04756206  0.60705489  0.44235950    -0.10300
C846        C  0.02742410  0.61838668  0.43171695    -0.29100
N847        N  0.07004238  0.71764903  0.37632559    -0.45700
C848        C  0.10237463  0.73877342  0.36960294    -0.05000
C849        C  0.12368806  0.72968166  0.38162206    -0.22400
H850        H  0.13448941  0.68444071  0.41338409     0.19500
H851        H  0.01716602  0.66331100  0.40071911     0.18200
H852        H  0.00043068  0.60681470  0.43298348     0.14500
H853        H  0.15057447  0.74126682  0.37940100     0.14400
H854        H  0.10079933  0.62551421  0.44191298     0.32600
H855        H  0.04886933  0.71822317  0.37002292     0.35300
C856        C  0.92085063  0.34543317  0.57230068     0.20900
C857        C  0.89731597  0.31122830  0.57561076    -0.39000
C858        C  0.89845614  0.29726454  0.59923332     0.19900
C859        C  0.92156224  0.31608066  0.61779747     0.22500
C860        C  0.94458364  0.35016742  0.61467295    -0.39500
C861        C  0.94322745  0.36407129  0.59131250     0.21300
N862        N  0.92556791  0.36458307  0.55155599    -0.32800
C863        C  0.95086955  0.39559761  0.55766439    -0.10300
C864        C  0.96239131  0.39619059  0.58231974    -0.29100
N865        N  0.91915307  0.29703870  0.63783903    -0.45700
C866        C  0.89422338  0.26571530  0.63236396    -0.05000
C867        C  0.88033033  0.26479230  0.60847217    -0.22400
H868        H  0.87978235  0.29652033  0.56080196     0.19500
H869        H  0.96262173  0.36471080  0.62926567     0.18200
H870        H  0.98242327  0.41724174  0.59221354     0.14500
H871        H  0.86073943  0.24318190  0.59878713     0.14400
H872        H  0.91234292  0.35711428  0.53441718     0.32600
H873        H  0.93408452  0.30487266  0.65419069     0.35300
C874        C  0.91818374  0.57321720  0.57366166     0.20900
C875        C  0.89922637  0.58935946  0.57570751    -0.39000
C876        C  0.89590638  0.59923804  0.60048879     0.19900
C877        C  0.91073023  0.59364192  0.62139102     0.22500
C878        C  0.92908696  0.57708242  0.61942292    -0.39500
C879        C  0.93219553  0.56709239  0.59481494     0.21300
N880        N  0.92624606  0.56258003  0.55227372    -0.32800
C881        C  0.94544432  0.54953533  0.55992163    -0.10300
C882        C  0.94951318  0.55181085  0.58637680    -0.29100
N883        N  0.90654026  0.60769077  0.64239103    -0.45700
C884        C  0.88867906  0.62226416  0.63518295    -0.05000
C885        C  0.88116942  0.61725277  0.60912884    -0.22400
H886        H  0.88857975  0.59457466  0.55916650     0.19500
H887        H  0.94092050  0.57310697  0.63580970     0.18200
H888        H  0.96386452  0.54401306  0.59784513     0.14500
H889        H  0.86861987  0.62722392  0.59779297     0.14400
H890        H  0.91941865  0.56440249  0.53360863     0.32600
H891        H  0.91620370  0.60822571  0.66051587     0.35300
C892        C  0.78736651  0.40683626  0.41396544     0.20900
C893        C  0.81477244  0.43749335  0.42127123    -0.39000
C894        C  0.84366430  0.43675735  0.42815927     0.19900
C895        C  0.84535596  0.40776638  0.42746864     0.22500
C896        C  0.81819787  0.37721005  0.41931176    -0.39500
C897        C  0.78899399  0.37782637  0.41279380     0.21300
N898        N  0.75605706  0.40039534  0.40972599    -0.32800
C899        C  0.73732415  0.36700293  0.40603479    -0.10300
C900        C  0.75705827  0.35202620  0.40743700    -0.29100
N901        N  0.87438418  0.41303163  0.43757009    -0.45700
C902        C  0.89105513  0.44550755  0.44489025    -0.05000
C903        C  0.87282680  0.46117445  0.43905094    -0.22400
H904        H  0.81302100  0.45984635  0.42304420     0.19500
H905        H  0.81904573  0.35428357  0.41957799     0.18200
H906        H  0.74875002  0.32565379  0.40649349     0.14500
H907        H  0.87912874  0.48644751  0.44363114     0.14400
H908        H  0.74765290  0.41752706  0.41059868     0.32600
H909        H  0.88171424  0.39527685  0.44035591     0.35300
C910        C  0.68238250  0.61143251  0.08974947     0.20900
C911        C  0.66150253  0.61992279  0.07643275    -0.39000
C912        C  0.63484681  0.59386471  0.06337186     0.19900
C913        C  0.62880025  0.56142294  0.06363022     0.22500
C914        C  0.64972496  0.55277354  0.07726737    -0.39500
C915        C  0.67694383  0.57919731  0.09021023     0.21300
N916        N  0.71016436  0.63233472  0.10265930    -0.32800
C917        C  0.72309212  0.61368882  0.11143933    -0.10300
C918        C  0.70300835  0.58025120  0.10413547    -0.29100
N919        N  0.60257505  0.54183017  0.04835379    -0.45700
C920        C  0.59248546  0.56238730  0.03824541    -0.05000
C921        C  0.61198644  0.59482402  0.04731766    -0.22400
H922        H  0.66627895  0.64530324  0.07565881     0.19500
H923        H  0.64572155  0.52766405  0.07720114     0.18200
H924        H  0.70718153  0.55970047  0.10812908     0.14500
H925        H  0.61042614  0.61661252  0.04205330     0.14400
H926        H  0.72007024  0.65801226  0.10498991     0.32600
H927        H  0.59311651  0.51659819  0.04425090     0.35300
C928        C  0.70397897  0.10597399  0.60014407     0.20900
C929        C  0.68480339  0.11479810  0.58447358    -0.39000
C930        C  0.65633096  0.08799414  0.57305142     0.19900
C931        C  0.64811674  0.05513056  0.57669231     0.22500
C932        C  0.66719794  0.04637563  0.59216080    -0.39500
C933        C  0.69511336  0.07293494  0.60379326     0.21300
N934        N  0.73102000  0.12627835  0.61443510    -0.32800
C935        C  0.73880029  0.10568127  0.62742481    -0.10300
C936        C  0.71701642  0.07239349  0.62113667    -0.29100
N937        N  0.61986085  0.03418252  0.56425797    -0.45700
C938        C  0.60944285  0.05353897  0.55270611    -0.05000
C939        C  0.63156818  0.08736013  0.55772074    -0.22400
H940        H  0.69105925  0.14047938  0.58189452     0.19500
H941        H  0.66029883  0.02061702  0.59543881     0.18200
H942        H  0.71658825  0.05052856  0.62894773     0.14500
H943        H  0.62970389  0.10852246  0.55114666     0.14400
H944        H  0.74251397  0.15220279  0.61605434     0.32600
H945        H  0.60807022  0.00813660  0.56396309     0.35300
C946        C  0.82519918  0.92594879  0.89882091     0.20900
C947        C  0.85301962  0.95643283  0.90602810    -0.39000
C948        C  0.88247217  0.95563591  0.91085439     0.19900
C949        C  0.88407245  0.92667711  0.90875246     0.22500
C950        C  0.85619226  0.89613589  0.90172538    -0.39500
C951        C  0.82674856  0.89693263  0.89682983     0.21300
N952        N  0.79518383  0.92071980  0.89116843    -0.32800
C953        C  0.77762417  0.88821387  0.88427070    -0.10300
C954        C  0.79634459  0.87249690  0.88752562    -0.29100
N955        N  0.91535432  0.93287226  0.91311215    -0.45700
C956        C  0.93381588  0.96604270  0.91790759    -0.05000
C957        C  0.91416237  0.98107441  0.91674653    -0.22400
H958        H  0.85210937  0.97930413  0.90696242     0.19500
H959        H  0.85761753  0.87366646  0.89941951     0.18200
H960        H  0.78937250  0.84723218  0.88228372     0.14500
H961        H  0.92220529  0.00725022  0.91911624     0.14400
H962        H  0.78766483  0.93847782  0.88953941     0.32600
H963        H  0.92377733  0.91576411  0.91223542     0.35300
C964        C  0.72559255  0.74423683  0.75739876     0.20900
C965        C  0.71909995  0.71398055  0.74661350    -0.39000
C966        C  0.74545443  0.71486526  0.73272852     0.19900
C967        C  0.77633304  0.74358429  0.72984353     0.22500
C968        C  0.78298725  0.77407384  0.74090619    -0.39500
C969        C  0.75627194  0.77325589  0.75471902     0.21300
N970        N  0.70403278  0.74974376  0.77078995    -0.32800
C971        C  0.72076547  0.78258492  0.77677209    -0.10300
C972        C  0.75354631  0.79820456  0.76710639    -0.29100
N973        N  0.79624443  0.73789041  0.71415585    -0.45700
C974        C  0.77745225  0.70543004  0.70696150    -0.05000
C975        C  0.74584739  0.69043879  0.71826330    -0.22400
H976        H  0.69486361  0.69150138  0.74829775     0.19500
H977        H  0.80677284  0.79686545  0.73836295     0.18200
H978        H  0.77266913  0.82422522  0.76883088     0.14500
H979        H  0.72521829  0.66535648  0.71517606     0.14400
H980        H  0.67928005  0.73215353  0.77548555     0.32600
H981        H  0.82024518  0.75531167  0.70770244     0.35300
C982        C  0.72079661  0.98638875  0.75864899     0.20900
C983        C  0.71254213  0.00725762  0.74507223    -0.39000
C984        C  0.73891596  0.03357006  0.73177152     0.19900
C985        C  0.77140222  0.03933793  0.73223396     0.22500
C986        C  0.77979776  0.01851922  0.74612512    -0.39500
C987        C  0.75309199  0.99162436  0.75914082     0.21300
N988        N  0.69959831  0.95862723  0.77157306    -0.32800
C989        C  0.71823921  0.94562456  0.78024146    -0.10300
C990        C  0.75183912  0.96556391  0.77297884    -0.29100
N991        N  0.79134972  0.06505578  0.71667003    -0.45700
C992        C  0.77100778  0.07505928  0.70606994    -0.05000
C993        C  0.73830650  0.05609643  0.71511683    -0.22400
H994        H  0.68711218  0.00259268  0.74414594     0.19500
H995        H  0.80490592  0.02224557  0.74605833     0.18200
H996        H  0.77235835  0.96120765  0.77685223     0.14500
H997        H  0.71664447  0.05774278  0.70942412     0.14400
H998        H  0.67381838  0.94871918  0.77386487     0.32600
H999        H  0.81665057  0.07414000  0.71260561     0.35300
C1000       C  0.57930024  0.65193894  0.95293356     0.20900
C1001       C  0.59882707  0.68677223  0.95112186    -0.39000
C1002       C  0.60155824  0.70023585  0.92671576     0.19900
C1003       C  0.58611002  0.68055066  0.90561258     0.22500
C1004       C  0.56594047  0.64557644  0.90752994    -0.39500
C1005       C  0.56304256  0.63201573  0.93210004     0.21300
N1006       N  0.57512185  0.63322938  0.97364864    -0.32800
C1007       C  0.55591442  0.60103647  0.96622461    -0.10300
C1008       C  0.54743211  0.59915346  0.94044701    -0.29100
N1009       N  0.59406889  0.69951813  0.88437748    -0.45700
C1010       C  0.61461363  0.73143225  0.89215824    -0.05000
C1011       C  0.61967432  0.73281052  0.91845197    -0.22400
H1012       H  0.61177083  0.70220239  0.96742241     0.19500
H1013       H  0.55412618  0.63003987  0.89103826     0.18200
H1014       H  0.53358702  0.57686038  0.92905818     0.14500
H1015       H  0.63510853  0.75466992  0.92990926     0.14400
H1016       H  0.58561332  0.64185733  0.99164202     0.32600
H1017       H  0.58623957  0.69127354  0.86577775     0.35300
C1018       C  0.45437646  0.73924075  0.74792538     0.20900
C1019       C  0.48288520  0.77064270  0.75209673    -0.39000
C1020       C  0.51124919  0.77020354  0.76117787     0.19900
C1021       C  0.51127242  0.74070408  0.76537598     0.22500
C1022       C  0.48304687  0.70934833  0.76054789    -0.39500
C1023       C  0.45456210  0.70977077  0.75180157     0.21300
N1024       N  0.42341280  0.73290381  0.74203061    -0.32800
C1025       C  0.40366444  0.69917672  0.74226403    -0.10300
C1026       C  0.42228892  0.68385298  0.74800300    -0.29100
N1027       N  0.54010177  0.74678005  0.77628724    -0.45700
C1028       C  0.55851787  0.78034353  0.77934164    -0.05000
C1029       C  0.54147533  0.79587971  0.76990836    -0.22400
H1030       H  0.48243184  0.79363845  0.74981497     0.19500
H1031       H  0.48273123  0.68628148  0.76463306     0.18200
H1032       H  0.41307132  0.65745522  0.75062621     0.14500
H1033       H  0.54931183  0.82215279  0.77068583     0.14400
H1034       H  0.41592404  0.75049942  0.73907331     0.32600
H1035       H  0.54621013  0.72902040  0.78238589     0.35300
C1036       C  0.37767573  0.29955400  0.60209600     0.20900
C1037       C  0.37526510  0.32487423  0.58944443    -0.39000
C1038       C  0.40425380  0.34872853  0.57689524     0.19900
C1039       C  0.43366349  0.34764301  0.57682048     0.22500
C1040       C  0.43591266  0.32168841  0.58915321    -0.39500
C1041       C  0.40660194  0.29753456  0.60181634     0.21300
N1042       N  0.35429692  0.27588589  0.61712154    -0.32800
C1043       C  0.36790556  0.25819822  0.62662376    -0.10300
C1044       C  0.40051187  0.27059488  0.61727219    -0.29100
N1045       N  0.45800337  0.37442438  0.56430671    -0.45700
C1046       C  0.44369908  0.39241488  0.55644919    -0.05000
C1047       C  0.41020504  0.37698119  0.56390050    -0.22400
H1048       H  0.35267325  0.32648721  0.59004116     0.19500
H1049       H  0.45894617  0.32088919  0.58948293     0.18200
H1050       H  0.41804321  0.26254569  0.62244771     0.14500
H1051       H  0.39264103  0.38559244  0.56059242     0.14400
H1052       H  0.33072781  0.27268295  0.62140854     0.32600
H1053       H  0.48274006  0.38018562  0.56141893     0.35300
C1054       C  0.34659358  0.42732522  0.42603849     0.20900
C1055       C  0.31195334  0.41471427  0.42278219    -0.39000
C1056       C  0.29901785  0.40135895  0.39855189     0.19900
C1057       C  0.31916098  0.40044829  0.37931676     0.22500
C1058       C  0.35369489  0.41359937  0.38237530    -0.39500
C1059       C  0.36657233  0.42711163  0.40638411     0.21300
N1060       N  0.36489588  0.44013192  0.44739611    -0.32800
C1061       C  0.39672125  0.44828981  0.44110633    -0.10300
C1062       C  0.39866820  0.44068992  0.41564321    -0.29100
N1063       N  0.30085725  0.38435343  0.35882954    -0.45700
C1064       C  0.26872249  0.37501862  0.36473930    -0.05000
C1065       C  0.26648516  0.38548098  0.38931101    -0.22400
H1066       H  0.29614492  0.41461265  0.43811621     0.19500
H1067       H  0.36928657  0.41262756  0.36731799     0.18200
H1068       H  0.42054122  0.44395257  0.40543322     0.14500
H1069       H  0.24400602  0.38058659  0.39946505     0.14400
H1070       H  0.35628279  0.44301785  0.46513410     0.32600
H1071       H  0.30964419  0.37933437  0.34197413     0.35300
C1072       C  0.69707200  0.62604199  0.60880541     0.20900
C1073       C  0.67007925  0.62717432  0.59763448    -0.39000
C1074       C  0.64829042  0.59935397  0.58304398     0.19900
C1075       C  0.65282551  0.57223633  0.57989498     0.22500
C1076       C  0.68034115  0.57137294  0.59075246    -0.39500
C1077       C  0.70243878  0.59948834  0.60529010     0.21300
N1078       N  0.71992367  0.64860016  0.62469482    -0.32800
C1079       C  0.74043713  0.63682065  0.63138201    -0.10300
C1080       C  0.73058720  0.60627016  0.61944792    -0.29100
N1081       N  0.62773971  0.54846948  0.56583921    -0.45700
C1082       C  0.60731356  0.56075237  0.55992018    -0.05000
C1083       C  0.61948955  0.59250449  0.57024872    -0.22400
H1084       H  0.66596674  0.64797515  0.60053306     0.19500
H1085       H  0.68393522  0.55016970  0.58843416     0.18200
H1086       H  0.74142499  0.59045364  0.62183167     0.14500
H1087       H  0.60850619  0.60831101  0.56882718     0.14400
H1088       H  0.72107533  0.67051213  0.63107338     0.32600
H1089       H  0.62474865  0.52540631  0.56053472     0.35300
C1090       C  0.56685469  0.63580438  0.40865354     0.20900
C1091       C  0.57321966  0.64701984  0.38329729    -0.39000
C1092       C  0.59001805  0.68173801  0.37987695     0.19900
C1093       C  0.59956117  0.70385898  0.40009362     0.22500
C1094       C  0.59285677  0.69256458  0.42556432    -0.39500
C1095       C  0.57628219  0.65768649  0.42901500     0.21300
N1096       N  0.55227243  0.60400956  0.41685448    -0.32800
C1097       C  0.55238574  0.60545126  0.44268747    -0.10300
C1098       C  0.56716908  0.63854681  0.45100430    -0.29100
N1099       N  0.61767943  0.73567922  0.39167621    -0.45700
C1100       C  0.61996183  0.73352406  0.36598772    -0.05000
C1101       C  0.60282953  0.70034679  0.35801711    -0.22400
H1102       H  0.56657291  0.62997124  0.36739069     0.19500
H1103       H  0.60092380  0.70965141  0.44152489     0.18200
H1104       H  0.57092196  0.64739146  0.47050028     0.14500
H1105       H  0.60177932  0.69103250  0.33889696     0.14400
H1106       H  0.54294552  0.58262709  0.40554571     0.32600
H1107       H  0.62948136  0.75725731  0.40279507     0.35300
C1108       C  0.59676247  0.43621801  0.44558116     0.20900
C1109       C  0.62588243  0.43407514  0.44664208    -0.39000
C1110       C  0.62558757  0.40882574  0.43191868     0.19900
C1111       C  0.59810586  0.38678036  0.41761426     0.22500
C1112       C  0.56908751  0.38940173  0.41609899    -0.39500
C1113       C  0.56963645  0.41526183  0.43049108     0.21300
N1114       N  0.59019640  0.45666962  0.45922420    -0.32800
C1115       C  0.55891131  0.44920837  0.45257750    -0.10300
C1116       C  0.54521396  0.42373293  0.43448112    -0.29100
N1117       N  0.60347805  0.36349311  0.40687712    -0.45700
C1118       C  0.63477379  0.37134263  0.41418018    -0.05000
C1119       C  0.64938712  0.39954725  0.42960798    -0.22400
H1120       H  0.64694223  0.45038674  0.45856849     0.19500
H1121       H  0.54746446  0.37216535  0.40505235     0.18200
H1122       H  0.52018183  0.41172800  0.42660055     0.14500
H1123       H  0.67366311  0.41089775  0.43875173     0.14400
H1124       H  0.60574592  0.47415777  0.47273492     0.32600
H1125       H  0.58691187  0.34345063  0.39551934     0.35300
C1126       C  0.40729631  0.62131723  0.58384538     0.20900
C1127       C  0.43816019  0.62381488  0.57804620    -0.39000
C1128       C  0.43654600  0.59419141  0.56997235     0.19900
C1129       C  0.40652936  0.56432719  0.56801478     0.22500
C1130       C  0.37576905  0.56167337  0.57435190    -0.39500
C1131       C  0.37736583  0.59130904  0.58227326     0.21300
N1132       N  0.40170506  0.64642974  0.58938967    -0.32800
C1133       C  0.36795905  0.63223936  0.59120783    -0.10300
C1134       C  0.35199364  0.59786402  0.58721534    -0.29100
N1135       N  0.41142410  0.54048291  0.55790875    -0.45700
C1136       C  0.44477990  0.55533191  0.55327944    -0.05000
C1137       C  0.46131736  0.58875046  0.56072058    -0.22400
H1138       H  0.46151015  0.64738081  0.57858011     0.19500
H1139       H  0.35219216  0.53860284  0.57213132     0.18200
H1140       H  0.32531089  0.58038347  0.58637620     0.14500
H1141       H  0.48765102  0.60699900  0.55847744     0.14400
H1142       H  0.41958727  0.67176227  0.59070177     0.32600
H1143       H  0.39306938  0.51601803  0.55354398     0.35300
C1144       C  0.60221069  0.90152665  0.92871917     0.20900
C1145       C  0.60306102  0.91269536  0.95365750    -0.39000
C1146       C  0.58205302  0.92571927  0.95857066     0.19900
C1147       C  0.56124280  0.92716304  0.94024629     0.22500
C1148       C  0.56000838  0.91544326  0.91526024    -0.39500
C1149       C  0.58157626  0.90286150  0.91017403     0.21300
N1150       N  0.62113930  0.88968746  0.91907431    -0.32800
C1151       C  0.61289887  0.88363601  0.89408261    -0.10300
C1152       C  0.58820983  0.89146729  0.88776815    -0.29100
N1153       N  0.54545606  0.94280893  0.94950752    -0.45700
C1154       C  0.55679649  0.95163208  0.97374840    -0.05000
C1155       C  0.57939783  0.94113515  0.98002837    -0.22400
H1156       H  0.61979234  0.91238816  0.96796868     0.19500
H1157       H  0.54438505  0.91712772  0.90064129     0.18200
H1158       H  0.57697817  0.88947710  0.86926382     0.14500
H1159       H  0.59323537  0.94554968  0.99763681     0.14400
H1160       H  0.63904595  0.88644872  0.92884401     0.32600
H1161       H  0.52919790  0.94837947  0.93965642     0.35300
C1162       C  0.09985198  0.41893366  0.90940661     0.20900
C1163       C  0.10025923  0.44743705  0.91944782    -0.39000
C1164       C  0.07392497  0.44115554  0.93645619     0.19900
C1165       C  0.04957109  0.40894171  0.94291724     0.22500
C1166       C  0.04880937  0.38073738  0.93259491    -0.39500
C1167       C  0.07470682  0.38697571  0.91560889     0.21300
N1168       N  0.12234046  0.41769287  0.89357609    -0.32800
C1169       C  0.11103786  0.38468561  0.88968085    -0.10300
C1170       C  0.08131984  0.36492213  0.90301252    -0.29100
N1171       N  0.02861244  0.40910633  0.96051841    -0.45700
C1172       C  0.03908259  0.44156134  0.96546297    -0.05000
C1173       C  0.06723611  0.46256135  0.95061305    -0.22400
H1174       H  0.11988066  0.47252324  0.91475820     0.19500
H1175       H  0.02971735  0.35563965  0.93784232     0.18200
H1176       H  0.06679963  0.33792793  0.90376764     0.14500
H1177       H  0.08166145  0.48955836  0.95100208     0.14400
H1178       H  0.14393954  0.43793384  0.88591448     0.32600
H1179       H  0.00854929  0.38817234  0.96905261     0.35300
C1180       C  0.57766594  0.92270709  0.42522742     0.20900
C1181       C  0.59196178  0.90212256  0.42370749    -0.39000
C1182       C  0.60269085  0.89882077  0.39927807     0.19900
C1183       C  0.59962819  0.91515551  0.37820226     0.22500
C1184       C  0.58476603  0.93508830  0.37962541    -0.39500
C1185       C  0.57393297  0.93820287  0.40390733     0.21300
N1186       N  0.56643959  0.93077642  0.44623264    -0.32800
C1187       C  0.55534416  0.95137460  0.43811400    -0.10300
C1188       C  0.55954951  0.95649491  0.41181819    -0.29100
N1189       N  0.61439421  0.91070818  0.35772846    -0.45700
C1190       C  0.62683823  0.89120604  0.36554677    -0.05000
C1191       C  0.61967950  0.88280993  0.39133098    -0.22400
H1192       H  0.59523120  0.89024727  0.44038623     0.19500
H1193       H  0.58267262  0.94802155  0.36313019     0.18200
H1194       H  0.55326851  0.97184026  0.40011553     0.14500
H1195       H  0.62779241  0.86891602  0.40301349     0.14400
H1196       H  0.56630760  0.92277165  0.46489211     0.32600
H1197       H  0.61685314  0.92126246  0.33962785     0.35300
C1198       C  0.08600157  0.43146057  0.42401576     0.20900
C1199       C  0.11449445  0.43190441  0.41345252    -0.39000
C1200       C  0.10822905  0.40342780  0.39919290     0.19900
C1201       C  0.07601544  0.37696356  0.39584695     0.22500
C1202       C  0.04789578  0.37627297  0.40668482    -0.39500
C1203       C  0.05412623  0.40439122  0.42082175     0.21300
N1204       N  0.08463635  0.45553994  0.43764460    -0.32800
C1205       C  0.05162878  0.44339576  0.44313573    -0.10300
C1206       C  0.03203770  0.41152862  0.43299625    -0.29100
N1207       N  0.07589374  0.35404254  0.38022629    -0.45700
C1208       C  0.10817173  0.36536237  0.37329711    -0.05000
C1209       C  0.12937461  0.39612954  0.38501239    -0.22400
H1210       H  0.13950526  0.45307961  0.41568151     0.19500
H1211       H  0.02276025  0.35556834  0.40376815     0.18200
H1212       H  0.00506468  0.39578761  0.43411511     0.14500
H1213       H  0.15616144  0.41180150  0.38239763     0.14400
H1214       H  0.10480686  0.47868742  0.44288828     0.32600
H1215       H  0.05472606  0.33220929  0.37403093     0.35300
C1216       C  0.68518248  0.07008223  0.09410496     0.20900
C1217       C  0.66247295  0.03931689  0.08322936    -0.39000
C1218       C  0.63510778  0.03800533  0.07068054     0.19900
C1219       C  0.63025975  0.06511497  0.06914661     0.22500
C1220       C  0.65296709  0.09602315  0.08035137    -0.39500
C1221       C  0.68077945  0.09747743  0.09275583     0.21300
N1222       N  0.71353070  0.07763191  0.10649629    -0.32800
C1223       C  0.72770941  0.11017958  0.11315816    -0.10300
C1224       C  0.70803710  0.12354268  0.10487127    -0.29100
N1225       N  0.60355259  0.05783591  0.05427632    -0.45700
C1226       C  0.59190126  0.02606017  0.04612045    -0.05000
C1227       C  0.61078294  0.01293629  0.05620979    -0.22400
H1228       H  0.66637786  0.01815645  0.08382863     0.19500
H1229       H  0.64980565  0.11758002  0.07883446     0.18200
H1230       H  0.71290952  0.14876576  0.10748248     0.14500
H1231       H  0.60828470  0.98887328  0.05216879     0.14400
H1232       H  0.72270306  0.06151754  0.11019315     0.32600
H1233       H  0.59507709  0.07401432  0.04882464     0.35300
C1234       C  0.93386080  0.31627018  0.09186405     0.20900
C1235       C  0.96257287  0.33653409  0.07735850    -0.39000
C1236       C  0.96438261  0.36515130  0.06675638     0.19900
C1237       C  0.93979060  0.37351400  0.07044290     0.22500
C1238       C  0.91106392  0.35329436  0.08530681    -0.39500
C1239       C  0.90895909  0.32418118  0.09566168     0.21300
N1240       N  0.92587740  0.28714554  0.10314878    -0.32800
C1241       C  0.89545872  0.27602637  0.11411261    -0.10300
C1242       C  0.88401892  0.29843181  0.10985928    -0.29100
N1243       N  0.94662583  0.40090333  0.05660447    -0.45700
C1244       C  0.97551255  0.40944276  0.04384860    -0.05000
C1245       C  0.98730159  0.38786941  0.04995321    -0.22400
H1246       H  0.98163986  0.32992059  0.07386615     0.19500
H1247       H  0.89130766  0.35914708  0.08788717     0.18200
H1248       H  0.86065637  0.29616453  0.11628244     0.14500
H1249       H  0.00894966  0.38778541  0.04202954     0.14400
H1250       H  0.94013931  0.27537131  0.10316715     0.32600
H1251       H  0.93177358  0.41192942  0.05491003     0.35300
C1252       C  0.74312074  0.98353238  0.28825492     0.20900
C1253       C  0.76017196  0.01854645  0.28722373    -0.39000
C1254       C  0.77042999  0.03272844  0.26288881     0.19900
C1255       C  0.76426098  0.01348388  0.24120911     0.22500
C1256       C  0.74800709  0.97838784  0.24234147    -0.39500
C1257       C  0.73768290  0.96411708  0.26676670     0.21300
N1258       N  0.72792533  0.96425480  0.30867960    -0.32800
C1259       C  0.71285613  0.93224022  0.30040411    -0.10300
C1260       C  0.71867116  0.93101482  0.27435500    -0.29100
N1261       N  0.77434353  0.03292421  0.22020974    -0.45700
C1262       C  0.78692544  0.06472760  0.22860182    -0.05000
C1263       C  0.78520134  0.06560302  0.25515422    -0.22400
H1264       H  0.76386265  0.03359700  0.30401355     0.19500
H1265       H  0.74259126  0.96328126  0.22535224     0.18200
H1266       H  0.70834186  0.90912890  0.26230697     0.14500
H1267       H  0.79270933  0.08725484  0.26710638     0.14400
H1268       H  0.72681395  0.97243100  0.32704580     0.32600
H1269       H  0.77219084  0.02498608  0.20130269     0.35300
C1270       C  0.99036395  0.23842431  0.24164147     0.20900
C1271       C  0.02543933  0.25336274  0.24356493    -0.39000
C1272       C  0.03885117  0.26433496  0.26808645     0.19900
C1273       C  0.01867529  0.26067320  0.28887339     0.22500
C1274       C  0.98374134  0.24505004  0.28708352    -0.39500
C1275       C  0.97044153  0.23417242  0.26271776     0.21300
N1276       N  0.97156515  0.22778340  0.22036927    -0.32800
C1277       C  0.93955957  0.21678614  0.22809718    -0.10300
C1278       C  0.93790590  0.22013093  0.25440287    -0.29100
N1279       N  0.03725685  0.27561785  0.30950376    -0.45700
C1280       C  0.06961458  0.28883815  0.30208769    -0.05000
C1281       C  0.07176301  0.28203522  0.27639110    -0.22400
H1282       H  0.04117240  0.25720178  0.22707882     0.19500
H1283       H  0.96814202  0.24267996  0.30332903     0.18200
H1284       H  0.91595418  0.21403294  0.26580500     0.14500
H1285       H  0.09424712  0.29058502  0.26502634     0.14400
H1286       H  0.98002061  0.22846523  0.20174649     0.32600
H1287       H  0.02843905  0.27753276  0.32744838     0.35300
C1288       C  0.76686550  0.25518013  0.23929135     0.20900
C1289       C  0.76980752  0.28384843  0.25100528    -0.39000
C1290       C  0.73981143  0.28448665  0.25387271     0.19900
C1291       C  0.70916899  0.25824526  0.24617234     0.22500
C1292       C  0.70616859  0.22944457  0.23481724    -0.39500
C1293       C  0.73618143  0.22913481  0.23142648     0.21300
N1294       N  0.79183953  0.24970985  0.23232388    -0.32800
C1295       C  0.77687314  0.22020463  0.21967701    -0.10300
C1296       C  0.74225937  0.20667024  0.21872650    -0.29100
N1297       N  0.68482028  0.26583836  0.24921286    -0.45700
C1298       C  0.70002717  0.29738100  0.25852414    -0.05000
C1299       C  0.73432721  0.30976912  0.26186364    -0.22400
H1300       H  0.79385821  0.30479729  0.25634145     0.19500
H1301       H  0.68240934  0.20945637  0.22794434     0.18200
H1302       H  0.72416059  0.18410932  0.20907794     0.14500
H1303       H  0.75296945  0.33450547  0.26809860     0.14400
H1304       H  0.81752135  0.26569869  0.23495907     0.32600
H1305       H  0.65966969  0.25105918  0.24407974     0.35300
C1306       C  0.92590104  0.10319495  0.09777132     0.20900
C1307       C  0.95631141  0.10650418  0.08932754    -0.39000
C1308       C  0.95524243  0.07667762  0.08264347     0.19900
C1309       C  0.92601157  0.04598169  0.08397029     0.22500
C1310       C  0.89542278  0.04279486  0.09170300    -0.39500
C1311       C  0.89657886  0.07254806  0.09869018     0.21300
N1312       N  0.92105689  0.12717539  0.10769457    -0.32800
C1313       C  0.88846439  0.11165246  0.11507186    -0.10300
C1314       C  0.87230860  0.07762139  0.10954984    -0.29100
N1315       N  0.93222262  0.02114279  0.07913855    -0.45700
C1316       C  0.96568644  0.03606852  0.07493365    -0.05000
C1317       C  0.98085853  0.07073321  0.07664927    -0.22400
H1318       H  0.97945749  0.13028253  0.08932491     0.19500
H1319       H  0.87279837  0.01871968  0.09350819     0.18200
H1320       H  0.84678360  0.05883556  0.11419380     0.14500
H1321       H  0.00731581  0.08894500  0.07526914     0.14400
H1322       H  0.93912633  0.15229193  0.11019717     0.32600
H1323       H  0.91499020  0.99553975  0.07984853     0.35300
loop_ 
_geom_bond_atom_site_label_1 
_geom_bond_atom_site_label_2 
_geom_bond_distance 
_geom_bond_site_symmetry_2 
_ccdc_geom_bond_type 
Zn1           O5   1.971       .  S
Zn1           O6   2.039       .  S
Zn1          O10   2.017       .  S
Zn1          O17   2.045       .  S
Zn2           O5   1.969       .  S
Zn2           O7   2.027       .  S
Zn2           O9   2.021       .  S
Zn2          O13   2.019       .  S
Zn3           O5   1.970       .  S
Zn3           O8   2.049       .  S
Zn3          O11   2.019       .  S
Zn3          O14   2.033       .  S
Zn4           O5   1.960       .  S
Zn4          O12   2.019       .  S
Zn4          O15   2.015       .  S
Zn4          O16   2.020       .  S
O6           C18   1.276       .  A
O7           C19   1.273       .  A
O8           C20   1.276       .  A
O9           C18   1.275       .  A
O10          C20   1.273       .  A
O11          C19   1.274       .  A
O12          C21   1.273       .  A
O13          C22   1.273       .  A
O14          C21   1.275       .  A
O15          C22   1.272       .  A
O16          C23   1.274       .  A
O17          C23   1.276       .  A
C18        C1241   1.475       .  S
C19        C1277   1.474       .  S
C20        C1295   1.472       .  S
C21        C1262   1.476       .  S
C22        C1313   1.471       .  S
C23        C1223   1.479       .  S
C24        C1208   1.486       .  S
C24          N25   1.366       .  A
C24          N29   1.353       .  A
N25          C26   1.373       .  A
C26         C253   1.485       .  S
C26          N27   1.365       .  A
N27          C28   1.359       .  A
C28        C1280   1.471       .  S
C28          N29   1.352       .  A
C30        C1190   1.473       .  S
C30          N31   1.361       .  A
C30          N35   1.352       .  A
N31          C32   1.367       .  A
C32         C162   1.486       .  S
C32          N33   1.368       .  A
N33          C34   1.363       .  A
C34        C1259   1.474       .  S
C34          N35   1.352       .  A
C36        C1172   1.476       .  S
C36          N37   1.360       .  A
C36          N41   1.349   1_556  A
N37          C38   1.369   1_556  A
C38         C308   1.483       .  S
C38          N39   1.370   1_455  A
N39          C40   1.363       .  A
C40        C1244   1.477       .  S
C40          N41   1.351   1_655  A
C42        C1154   1.475       .  S
C42          N43   1.352   1_556  A
C42          N47   1.360       .  A
N43          C44   1.351   1_565  A
C44        C1226   1.476       .  S
C44          N45   1.361       .  A
N45          C46   1.369   1_545  A
C46         C312   1.480   1_565  S
C46          N47   1.367   1_554  A
Zn48         O52   1.972       .  S
Zn48         O53   2.041       .  S
Zn48         O57   2.024       .  S
Zn48         O64   2.034       .  S
Zn49         O52   1.961       .  S
Zn49         O54   2.003       .  S
Zn49         O56   2.017       .  S
Zn49         O60   2.026       .  S
Zn50         O52   1.968       .  S
Zn50         O55   2.046       .  S
Zn50         O58   2.025       .  S
Zn50         O61   2.031       .  S
Zn51         O52   1.970       .  S
Zn51         O59   2.041       .  S
Zn51         O62   2.042       .  S
Zn51         O63   1.988       .  S
O53          C65   1.276       .  A
O54          C66   1.272       .  A
O55          C67   1.274       .  A
O56          C65   1.273       .  A
O57          C67   1.274       .  A
O58          C66   1.275       .  A
O59          C68   1.275       .  A
O60          C69   1.274       .  A
O61          C68   1.277       .  A
O62          C69   1.274       .  A
O63          C70   1.270       .  A
O64          C70   1.274       .  A
C65        C1097   1.478       .  S
C66        C1136   1.469       .  S
C67        C1061   1.480       .  S
C68        C1046   1.480       .  S
C69        C1082   1.481       .  S
C70        C1115   1.461       .  S
Zn71         O75   1.965       .  S
Zn71         O76   2.019       .  S
Zn71         O80   2.018       .  S
Zn71         O87   2.032       .  S
Zn72         O75   1.962       .  S
Zn72         O77   2.021       .  S
Zn72         O79   2.032       .  S
Zn72         O83   2.030       .  S
Zn73         O75   1.967       .  S
Zn73         O78   2.033       .  S
Zn73         O81   2.030       .  S
Zn73         O84   2.029       .  S
Zn74         O75   1.967       .  S
Zn74         O82   2.020       .  S
Zn74         O85   2.024       .  S
Zn74         O86   1.993       .  S
O76          C88   1.274       .  A
O77          C89   1.274       .  A
O78          C90   1.274       .  A
O79          C88   1.274       .  A
O80          C90   1.274       .  A
O81          C89   1.275       .  A
O82          C91   1.273       .  A
O83          C92   1.276       .  A
O84          C91   1.275       .  A
O85          C92   1.273       .  A
O86          C93   1.269       .  A
O87          C93   1.273       .  A
C88        C1010   1.475       .  S
C89        C1028   1.475       .  S
C90        C1151   1.474       .  S
C91         C989   1.474       .  S
C92         C971   1.477       .  S
C93         C953   1.460       .  S
C94         C974   1.475       .  S
C94          N95   1.352       .  A
C94          N99   1.362       .  A
N95          C96   1.352       .  A
C96        C1079   1.478       .  S
C96          N97   1.362       .  A
N97          C98   1.369       .  A
C98         C294   1.486       .  S
C98          N99   1.370       .  A
C100        C935   1.477       .  S
C100        N101   1.363       .  A
C100        N105   1.352       .  A
N101        C102   1.369       .  A
C102        C224   1.480       .  S
C102        N103   1.366       .  A
N103        C104   1.358       .  A
C104        C992   1.471       .  S
C104        N105   1.350       .  A
C106        C920   1.477       .  S
C106        N107   1.353       .  A
C106        N111   1.362       .  A
N107        C108   1.350   1_554  A
C108       C1007   1.473       .  S
C108        N109   1.359       .  A
N109        C110   1.366       .  A
C110        C265   1.481       .  S
C110        N111   1.369   1_556  A
Zn112       O116   1.964       .  S
Zn112       O117   2.022   1_655  S
Zn112       O121   2.043       .  S
Zn112       O128   2.019       .  S
Zn113       O116   1.981   1_455  S
Zn113       O118   2.004       .  S
Zn113       O120   2.045       .  S
Zn113       O124   2.059       .  S
Zn114       O116   1.968   1_455  S
Zn114       O119   2.038   1_455  S
Zn114       O122   2.023       .  S
Zn114       O125   2.024   1_455  S
Zn115       O116   1.969       .  S
Zn115       O123   2.034       .  S
Zn115       O126   2.029   1_655  S
Zn115       O127   2.023       .  S
O117        C129   1.275       .  A
O118        C130   1.271       .  A
O119        C131   1.275       .  A
O120        C129   1.276       .  A
O121        C131   1.275       .  A
O122        C130   1.273       .  A
O123        C132   1.274       .  A
O124        C133   1.277       .  A
O125        C132   1.275       .  A
O126        C133   1.276       .  A
O127        C134   1.274       .  A
O128        C134   1.274       .  A
C129        C845   1.478       .  S
C130        C830   1.459       .  S
C131        C881   1.484       .  S
C132        C863   1.475       .  S
C133       C1205   1.485       .  S
C134        C902   1.473       .  S
Zn135       O139   1.962       .  S
Zn135       O140   2.009       .  S
Zn135       O144   2.016       .  S
Zn135       O151   2.030       .  S
Zn136       O139   1.969       .  S
Zn136       O141   2.023       .  S
Zn136       O143   2.032       .  S
Zn136       O147   2.033       .  S
Zn137       O139   1.975       .  S
Zn137       O142   2.033       .  S
Zn137       O145   2.046       .  S
Zn137       O148   2.016       .  S
Zn138       O139   1.970       .  S
Zn138       O146   2.040       .  S
Zn138       O149   2.029       .  S
Zn138       O150   2.034       .  S
O140        C152   1.272       .  A
O141        C153   1.275       .  A
O142        C154   1.274       .  A
O143        C152   1.274       .  A
O144        C154   1.274       .  A
O145        C153   1.276       .  A
O146        C155   1.275       .  A
O147        C156   1.274       .  A
O148        C155   1.272       .  A
O149        C156   1.275       .  A
O150        C157   1.275       .  A
O151        C157   1.274       .  A
C152        C737   1.473       .  S
C153        C917   1.479       .  S
C154        C755   1.475       .  S
C155        C809   1.469       .  S
C156        C773   1.477       .  S
C157        C791   1.478       .  S
C158        C776   1.478       .  S
C158        N159   1.351       .  A
C158        N163   1.364       .  A
N159        C160   1.350       .  A
C160       C1100   1.474       .  S
C160        N161   1.361       .  A
N161        C162   1.369       .  A
C162        N163   1.370       .  A
C164        C794   1.476       .  S
C164        N165   1.352       .  A
C164        N169   1.361       .  A
N165        C166   1.352       .  A
C166        C848   1.479       .  S
C166        N167   1.363       .  A
N167        C168   1.369       .  A
C168        C259   1.487       .  S
C168        N169   1.369       .  A
Zn170       O174   1.971       .  S
Zn170       O175   2.024   1_545  S
Zn170       O179   2.029       .  S
Zn170       O186   2.041   1_545  S
Zn171       O174   1.966   1_565  S
Zn171       O176   2.019   1_565  S
Zn171       O178   2.022       .  S
Zn171       O182   2.017       .  S
Zn172       O174   1.974       .  S
Zn172       O177   2.008       .  S
Zn172       O180   2.051       .  S
Zn172       O183   2.041       .  S
Zn173       O174   1.964   1_565  S
Zn173       O181   2.026   1_565  S
Zn173       O184   2.017       .  S
Zn173       O185   2.029       .  S
O175        C187   1.274       .  A
O176        C188   1.274       .  A
O177        C189   1.272       .  A
O178        C187   1.273       .  A
O179        C189   1.273       .  A
O180        C188   1.277       .  A
O181        C190   1.275       .  A
O182        C191   1.273       .  A
O183        C190   1.276       .  A
O184        C191   1.273       .  A
O185        C192   1.274       .  A
O186        C192   1.276       .  A
C187       C1187   1.474       .  S
C188        C938   1.479       .  S
C189        C665   1.463       .  S
C190        C683   1.479       .  S
C191        C719   1.471       .  S
C192        C701   1.481       .  S
Zn193       O197   1.975       .  S
Zn193       O198   2.005       .  S
Zn193       O202   2.040       .  S
Zn193       O209   2.046       .  S
Zn194       O197   1.970       .  S
Zn194       O199   2.038       .  S
Zn194       O201   2.035       .  S
Zn194       O205   2.026       .  S
Zn195       O197   1.963       .  S
Zn195       O200   2.011       .  S
Zn195       O203   2.041       .  S
Zn195       O206   2.018       .  S
Zn196       O197   1.962       .  S
Zn196       O204   2.012       .  S
Zn196       O207   2.012       .  S
Zn196       O208   2.019       .  S
O198        C210   1.272       .  A
O199        C211   1.275       .  A
O200        C212   1.275       .  A
O201        C210   1.274       .  A
O202        C212   1.276       .  A
O203        C211   1.274       .  A
O204        C213   1.272       .  A
O205        C214   1.275       .  A
O206        C213   1.273       .  A
O207        C214   1.272       .  A
O208        C215   1.274       .  A
O209        C215   1.274       .  A
C210        C647   1.464       .  S
C211        C614   1.483       .  S
C212        C632   1.475       .  S
C213        C575   1.470       .  S
C214        C596   1.472       .  S
C215       C1169   1.479       .  S
C216        C611   1.482       .  S
C216        N217   1.364       .  A
C216        N221   1.351       .  A
N217        C218   1.371       .  A
C218        C302   1.485       .  S
C218        N219   1.368       .  A
N219        C220   1.361       .  A
C220       C1043   1.475       .  S
C220        N221   1.352       .  A
C222        C866   1.475       .  S
C222        N223   1.363       .  A
C222        N227   1.352       .  A
N223        C224   1.368       .  A
C224        N225   1.366       .  A
N225        C226   1.358       .  A
C226        C593   1.469       .  S
C226        N227   1.350       .  A
Zn228       O232   1.969       .  S
Zn228       O233   2.043       .  S
Zn228       O237   2.037       .  S
Zn228       O244   2.038       .  S
Zn229       O232   1.963       .  S
Zn229       O234   2.023       .  S
Zn229       O236   2.027       .  S
Zn229       O240   2.007       .  S
Zn230       O232   1.978       .  S
Zn230       O235   2.017       .  S
Zn230       O238   2.044       .  S
Zn230       O241   2.037       .  S
Zn231       O232   1.973       .  S
Zn231       O239   2.019       .  S
Zn231       O242   2.026       .  S
Zn231       O243   2.045       .  S
O233        C245   1.277       .  A
O234        C246   1.274       .  A
O235        C247   1.273       .  A
O236        C245   1.274       .  A
O237        C247   1.275       .  A
O238        C246   1.275       .  A
O239        C248   1.275       .  A
O240        C249   1.272       .  A
O241        C248   1.275       .  A
O242        C249   1.273       .  A
O243        C250   1.275       .  A
O244        C250   1.276       .  A
C245        C542   1.480       .  S
C246        C503   1.479       .  S
C247        C557   1.467       .  S
C248        C485   1.474       .  S
C249        C470   1.471       .  S
C250        C521   1.482       .  S
C251        C539   1.484       .  S
C251        N252   1.365       .  A
C251        N256   1.352       .  A
N252        C253   1.373       .  A
C253        N254   1.365       .  A
N254        C255   1.359       .  A
C255       C1064   1.473       .  S
C255        N256   1.351       .  A
C257        C524   1.480       .  S
C257        N258   1.362       .  A
C257        N262   1.351       .  A
N258        C259   1.370       .  A
C259        N260   1.371       .  A
N260        C261   1.363       .  A
C261        C704   1.479       .  S
C261        N262   1.351       .  A
C263        C506   1.473       .  S
C263        N264   1.361       .  A
C263        N268   1.352   1_554  A
N264        C265   1.367   1_554  A
C265        N266   1.368       .  A
N266        C267   1.361       .  A
C267        C629   1.473       .  S
C267        N268   1.352       .  A
Zn269       O273   1.961       .  S
Zn269       O274   2.009       .  S
Zn269       O278   2.023       .  S
Zn269       O285   2.013       .  S
Zn270       O273   1.960       .  S
Zn270       O275   2.029       .  S
Zn270       O277   2.022       .  S
Zn270       O281   2.014       .  S
Zn271       O273   1.968       .  S
Zn271       O276   2.031       .  S
Zn271       O279   2.026       .  S
Zn271       O282   2.028       .  S
Zn272       O273   1.975       .  S
Zn272       O280   2.004       .  S
Zn272       O283   2.048       .  S
Zn272       O284   2.037       .  S
O274        C286   1.272       .  A
O275        C287   1.273       .  A
O276        C288   1.275       .  A
O277        C286   1.274       .  A
O278        C288   1.273       .  A
O279        C287   1.274       .  A
O280        C289   1.272       .  A
O281        C290   1.274       .  A
O282        C289   1.273       .  A
O283        C290   1.276       .  A
O284        C291   1.274       .  A
O285        C291   1.273       .  A
C286        C449   1.471       .  S
C287        C380   1.476       .  S
C288        C359   1.476       .  S
C289        C431   1.461       .  S
C290        C413   1.478       .  S
C291        C395   1.475       .  S
C292        C884   1.479       .  S
C292        N293   1.363       .  A
C292        N297   1.352       .  A
N293        C294   1.370       .  A
C294        N295   1.368       .  A
N295        C296   1.362       .  A
C296        C377   1.476       .  S
C296        N297   1.353       .  A
C298        C686   1.481       .  S
C298        N299   1.352       .  A
C298        N303   1.363       .  A
N299        C300   1.352       .  A
C300        C362   1.475       .  S
C300        N301   1.361       .  A
N301        C302   1.368       .  A
C302        N303   1.371       .  A
C304        C758   1.475       .  S
C304        N305   1.352   1_654  A
C304        N309   1.364       .  A
N305        C306   1.350       .  A
C306        C416   1.472       .  S
C306        N307   1.359       .  A
N307        C308   1.367   1_556  A
C308        N309   1.370   1_455  A
C310        C488   1.472       .  S
C310        N311   1.360       .  A
C310        N315   1.349   1_554  A
N311        C312   1.368       .  A
C312        N313   1.371   1_544  A
N313        C314   1.362       .  A
C314        C398   1.476       .  S
C314        N315   1.348   1_565  A
C316       C1316   1.471       .  S
C316        N317   1.358   1_545  A
C316        N321   1.357   1_655  A
N317        C318   1.358       .  A
C318        C740   1.473       .  S
C318        N319   1.360   1_655  A
N319        C320   1.359   1_565  A
C320        C467   1.472       .  S
C320        N321   1.357       .  A
C322       C1118   1.466       .  S
C322        N323   1.356       .  A
C322        N327   1.354       .  A
N323        C324   1.360       .  A
C324        C668   1.471       .  S
C324        N325   1.362       .  A
N325        C326   1.359       .  A
C326        C899   1.472       .  S
C326        N327   1.355       .  A
C328       C1133   1.469       .  S
C328        N329   1.355       .  A
C328        N333   1.359       .  A
N329        C330   1.354       .  A
C330        C827   1.468       .  S
C330        N331   1.356       .  A
N331        C332   1.359       .  A
C332        C722   1.471       .  S
C332        N333   1.360       .  A
C334        C452   1.472       .  S
C334        N335   1.359   1_455  A
C334        N339   1.361   1_565  A
N335        C336   1.357       .  A
C336        C956   1.470       .  S
C336        N337   1.355   1_565  A
N337        C338   1.356   1_655  A
C338        C578   1.470       .  S
C338        N339   1.360       .  A
C340        C434   1.471       .  S
C340        N341   1.357       .  A
C340        N345   1.359       .  A
N341        C342   1.356       .  A
C342       C1025   1.474       .  S
C342        N343   1.359       .  A
N343        C344   1.361       .  A
C344        C650   1.474       .  S
C344        N345   1.360       .  A
C346       C1298   1.478       .  S
C346        N347   1.361       .  A
C346        N351   1.360       .  A
N347        C348   1.360       .  A
C348        C560   1.478       .  S
C348        N349   1.360       .  A
N349        C350   1.360       .  A
C350        C812   1.478       .  S
C350        N351   1.360       .  A
C352        N358   1.342       .  A
C352        C357   1.385       .  A
C352        C353   1.398       .  A
C353        C354   1.399   1_565  A
C353        H364   1.083       .  S
C354        C363   1.370       .  A
C354        C355   1.384       .  A
C355        N361   1.352       .  A
C355        C356   1.410       .  A
C356        C357   1.411   1_545  A
C356        H365   1.082       .  S
C357        C360   1.384       .  A
N358        C359   1.353       .  A
N358        H368   1.045       .  S
C359        C360   1.400       .  A
C360        H366   1.082       .  S
N361        C362   1.358       .  A
N361        H369   1.044       .  S
C362        C363   1.393       .  A
C363        H367   1.083       .  S
C370        N376   1.352       .  A
C370        C375   1.384       .  A
C370        C371   1.409       .  A
C371        C372   1.410   1_655  A
C371        H382   1.082       .  S
C372        C381   1.384       .  A
C372        C373   1.385       .  A
C373        N379   1.343       .  A
C373        C374   1.399       .  A
C374        C375   1.400   1_455  A
C374        H383   1.083       .  S
C375        C378   1.371       .  A
N376        C377   1.358       .  A
N376        H386   1.045       .  S
C377        C378   1.393       .  A
C378        H384   1.083       .  S
N379        C380   1.354       .  A
N379        H387   1.045       .  S
C380        C381   1.399       .  A
C381        H385   1.082       .  S
C388        N394   1.348       .  A
C388        C393   1.384       .  A
C388        C389   1.412       .  A
C389        C390   1.410       .  A
C389        H400   1.082       .  S
C390        C399   1.391       .  A
C390        C391   1.384       .  A
C391        N397   1.336       .  A
C391        C392   1.399       .  A
C392        C393   1.396       .  A
C392        H401   1.083       .  S
C393        C396   1.374       .  A
N394        C395   1.359       .  A
N394        H404   1.044       .  S
C395        C396   1.392       .  A
C396        H402   1.083       .  S
N397        C398   1.355       .  A
N397        H405   1.045   1_565  S
C398        C399   1.400       .  A
C399        H403   1.082       .  S
C406        N412   1.339       .  A
C406        C411   1.384       .  A
C406        C407   1.398       .  A
C407        C408   1.397       .  A
C407        H418   1.083       .  S
C408        C417   1.371       .  A
C408        C409   1.384       .  A
C409        N415   1.351       .  A
C409        C410   1.411       .  A
C410        C411   1.411       .  A
C410        H419   1.082       .  S
C411        C414   1.388       .  A
N412        C413   1.354       .  A
N412        H422   1.045       .  S
C413        C414   1.401       .  A
C414        H420   1.082       .  S
N415        C416   1.358       .  A
N415        H423   1.045       .  S
C416        C417   1.392       .  A
C417        H421   1.083   1_455  S
C424        N430   1.341       .  A
C424        C429   1.386       .  A
C424        C425   1.400       .  A
C425        C426   1.399       .  A
C425        H436   1.083       .  S
C426        C435   1.373       .  A
C426        C427   1.385       .  A
C427        N433   1.346       .  A
C427        C428   1.406       .  A
C428        C429   1.405       .  A
C428        H437   1.082       .  S
C429        C432   1.381       .  A
N430        C431   1.352       .  A
N430        H440   1.045       .  S
C431        C432   1.394       .  A
C432        H438   1.082       .  S
N433        C434   1.357       .  A
N433        H441   1.045       .  S
C434        C435   1.393       .  A
C435        H439   1.083       .  S
C442        N448   1.342       .  A
C442        C447   1.385       .  A
C442        C443   1.403       .  A
C443        C444   1.402       .  A
C443        H454   1.082       .  S
C444        C453   1.379       .  A
C444        C445   1.384       .  A
C445        N451   1.342       .  A
C445        C446   1.403       .  A
C446        C447   1.402       .  A
C446        H455   1.082       .  S
C447        C450   1.379       .  A
N448        C449   1.356       .  A
N448        H458   1.044       .  S
C449        C450   1.395       .  A
C450        H456   1.082       .  S
N451        C452   1.356       .  A
N451        H459   1.044   1_455  S
C452        C453   1.395       .  A
C453        H457   1.082   1_565  S
C460        N466   1.342       .  A
C460        C465   1.385       .  A
C460        C461   1.402       .  A
C461        C462   1.401       .  A
C461        H472   1.083       .  S
C462        C471   1.376       .  A
C462        C463   1.385       .  A
C463        N469   1.344       .  A
C463        C464   1.404       .  A
C464        C465   1.403       .  A
C464        H473   1.082       .  S
C465        C468   1.379       .  A
N466        C467   1.355       .  A
N466        H476   1.045       .  S
C467        C468   1.396       .  A
C468        H474   1.082   1_545  S
N469        C470   1.356       .  A
N469        H477   1.045       .  S
C470        C471   1.395       .  A
C471        H475   1.083       .  S
C478        N484   1.339       .  A
C478        C483   1.385       .  A
C478        C479   1.396       .  A
C479        C480   1.396       .  A
C479        H490   1.083       .  S
C480        C489   1.366       .  A
C480        C481   1.384       .  A
C481        N487   1.352       .  A
C481        C482   1.410       .  A
C482        C483   1.411       .  A
C482        H491   1.082       .  S
C483        C486   1.386       .  A
N484        C485   1.352       .  A
N484        H494   1.045       .  S
C485        C486   1.401       .  A
C486        H492   1.082       .  S
N487        C488   1.358       .  A
N487        H495   1.045       .  S
C488        C489   1.392       .  A
C489        H493   1.083       .  S
C496        N502   1.349       .  A
C496        C501   1.384       .  A
C496        C497   1.411       .  A
C497        C498   1.409       .  A
C497        H508   1.082       .  S
C498        C507   1.388       .  A
C498        C499   1.384       .  A
C499        N505   1.339       .  A
C499        C500   1.401       .  A
C500        C501   1.399       .  A
C500        H509   1.083       .  S
C501        C504   1.376       .  A
N502        C503   1.359       .  A
N502        H512   1.044       .  S
C503        C504   1.394       .  A
C504        H510   1.083       .  S
N505        C506   1.354       .  A
N505        H513   1.045       .  S
C506        C507   1.398       .  A
C507        H511   1.082       .  S
C514        N520   1.343       .  A
C514        C519   1.384       .  A
C514        C515   1.400       .  A
C515        C516   1.400   1_545  A
C515        H526   1.083       .  S
C516        C525   1.371       .  A
C516        C517   1.384       .  A
C517        N523   1.354       .  A
C517        C518   1.412       .  A
C518        C519   1.413   1_565  A
C518        H527   1.082       .  S
C519        C522   1.388       .  A
N520        C521   1.354       .  A
N520        H530   1.045       .  S
C521        C522   1.402       .  A
C522        H528   1.082       .  S
N523        C524   1.360       .  A
N523        H531   1.045       .  S
C524        C525   1.394       .  A
C525        H529   1.083       .  S
C532        N538   1.354       .  A
C532        C537   1.384       .  A
C532        C533   1.411       .  A
C533        C534   1.412       .  A
C533        H544   1.082       .  S
C534        C543   1.385       .  A
C534        C535   1.384       .  A
C535        N541   1.345       .  A
C535        C536   1.401       .  A
C536        C537   1.402       .  A
C536        H545   1.083       .  S
C537        C540   1.372       .  A
N538        C539   1.360       .  A
N538        H548   1.045       .  S
C539        C540   1.395       .  A
C540        H546   1.083       .  S
N541        C542   1.354       .  A
N541        H549   1.045       .  S
C542        C543   1.401       .  A
C543        H547   1.082       .  S
C550        N556   1.344       .  A
C550        C555   1.385       .  A
C550        C551   1.404       .  A
C551        C552   1.403       .  A
C551        H562   1.082       .  S
C552        C561   1.379       .  A
C552        C553   1.384       .  A
C553        N559   1.346       .  A
C553        C554   1.406       .  A
C554        C555   1.405       .  A
C554        H563   1.082       .  S
C555        C558   1.381       .  A
N556        C557   1.354       .  A
N556        H566   1.045       .  S
C557        C558   1.394       .  A
C558        H564   1.082       .  S
N559        C560   1.357       .  A
N559        H567   1.044       .  S
C560        C561   1.396       .  A
C561        H565   1.082       .  S
C568        N574   1.343       .  A
C568        C573   1.385       .  A
C568        C569   1.404       .  A
C569        C570   1.402       .  A
C569        H580   1.082       .  S
C570        C579   1.379       .  A
C570        C571   1.385       .  A
C571        N577   1.341       .  A
C571        C572   1.402       .  A
C572        C573   1.401       .  A
C572        H581   1.083       .  S
C573        C576   1.377       .  A
N574        C575   1.355       .  A
N574        H584   1.045       .  S
C575        C576   1.395       .  A
C576        H582   1.083       .  S
N577        C578   1.355       .  A
N577        H585   1.045   1_455  S
C578        C579   1.395       .  A
C579        H583   1.082       .  S
C586        N592   1.349       .  A
C586        C591   1.385       .  A
C586        C587   1.408       .  A
C587        C588   1.408   1_655  A
C587        H598   1.082       .  S
C588        C597   1.381       .  A
C588        C589   1.385       .  A
C589        N595   1.341       .  A
C589        C590   1.398       .  A
C590        C591   1.399   1_455  A
C590        H599   1.082       .  S
C591        C594   1.371       .  A
N592        C593   1.357       .  A
N592        H602   1.045       .  S
C593        C594   1.391       .  A
C594        H600   1.083       .  S
N595        C596   1.353       .  A
N595        H603   1.045       .  S
C596        C597   1.399       .  A
C597        H601   1.082       .  S
C604        N610   1.341       .  A
C604        C609   1.383       .  A
C604        C605   1.403       .  A
C605        C606   1.401       .  A
C605        H616   1.082       .  S
C606        C615   1.379       .  A
C606        C607   1.383       .  A
C607        N613   1.349       .  A
C607        C608   1.412       .  A
C608        C609   1.411       .  A
C608        H617   1.082       .  S
C609        C612   1.392       .  A
N610        C611   1.357       .  A
N610        H620   1.045       .  S
C611        C612   1.400       .  A
C612        H618   1.082       .  S
N613        C614   1.360       .  A
N613        H621   1.044       .  S
C614        C615   1.395       .  A
C615        H619   1.082       .  S
C622        N628   1.338       .  A
C622        C627   1.385       .  A
C622        C623   1.399       .  A
C623        C624   1.397       .  A
C623        H634   1.083       .  S
C624        C633   1.373       .  A
C624        C625   1.384       .  A
C625        N631   1.349       .  A
C625        C626   1.410       .  A
C626        C627   1.410       .  A
C626        H635   1.082       .  S
C627        C630   1.389       .  A
N628        C629   1.353       .  A
N628        H638   1.045       .  S
C629        C630   1.399       .  A
C630        H636   1.082       .  S
N631        C632   1.359       .  A
N631        H639   1.044       .  S
C632        C633   1.393       .  A
C633        H637   1.083       .  S
C640        N646   1.345       .  A
C640        C645   1.386       .  A
C640        C641   1.404       .  A
C641        C642   1.404       .  A
C641        H652   1.082       .  S
C642        C651   1.379       .  A
C642        C643   1.385       .  A
C643        N649   1.344       .  A
C643        C644   1.403       .  A
C644        C645   1.402       .  A
C644        H653   1.082       .  S
C645        C648   1.377       .  A
N646        C647   1.354       .  A
N646        H656   1.045       .  S
C647        C648   1.392       .  A
C648        H654   1.082       .  S
N649        C650   1.356       .  A
N649        H657   1.044       .  S
C650        C651   1.396       .  A
C651        H655   1.082       .  S
C658        N664   1.345       .  A
C658        C663   1.386       .  A
C658        C659   1.404       .  A
C659        C660   1.403       .  A
C659        H670   1.082       .  S
C660        C669   1.379       .  A
C660        C661   1.385       .  A
C661        N667   1.342       .  A
C661        C662   1.402       .  A
C662        C663   1.401       .  A
C662        H671   1.083       .  S
C663        C666   1.376       .  A
N664        C665   1.354       .  A
N664        H674   1.044       .  S
C665        C666   1.392       .  A
C666        H672   1.082       .  S
N667        C668   1.355       .  A
N667        H675   1.045       .  S
C668        C669   1.396       .  A
C669        H673   1.082       .  S
C676        N682   1.343       .  A
C676        C681   1.384       .  A
C676        C677   1.400       .  A
C677        C678   1.400       .  A
C677        H688   1.083       .  S
C678        C687   1.372       .  A
C678        C679   1.384       .  A
C679        N685   1.353       .  A
C679        C680   1.411       .  A
C680        C681   1.412       .  A
C680        H689   1.082       .  S
C681        C684   1.386       .  A
N682        C683   1.354       .  A
N682        H692   1.045       .  S
C683        C684   1.401       .  A
C684        H690   1.082       .  S
N685        C686   1.359       .  A
N685        H693   1.044       .  S
C686        C687   1.395       .  A
C687        H691   1.083       .  S
C694        N700   1.345       .  A
C694        C699   1.384       .  A
C694        C695   1.401       .  A
C695        C696   1.401       .  A
C695        H706   1.082       .  S
C696        C705   1.372       .  A
C696        C697   1.384       .  A
C697        N703   1.353       .  A
C697        C698   1.411       .  A
C698        C699   1.412       .  A
C698        H707   1.082       .  S
C699        C702   1.384       .  A
N700        C701   1.355       .  A
N700        H710   1.045       .  S
C701        C702   1.401       .  A
C702        H708   1.082       .  S
N703        C704   1.359       .  A
N703        H711   1.045       .  S
C704        C705   1.394       .  A
C705        H709   1.083       .  S
C712        N718   1.342       .  A
C712        C717   1.385       .  A
C712        C713   1.402       .  A
C713        C714   1.401       .  A
C713        H724   1.082       .  S
C714        C723   1.375       .  A
C714        C715   1.385       .  A
C715        N721   1.344       .  A
C715        C716   1.404       .  A
C716        C717   1.403       .  A
C716        H725   1.082       .  S
C717        C720   1.379       .  A
N718        C719   1.355       .  A
N718        H728   1.045       .  S
C719        C720   1.396       .  A
C720        H726   1.082       .  S
N721        C722   1.356       .  A
N721        H729   1.045       .  S
C722        C723   1.394       .  A
C723        H727   1.083       .  S
C730        N736   1.346       .  A
C730        C735   1.385       .  A
C730        C731   1.405       .  A
C731        C732   1.404       .  A
C731        H742   1.082       .  S
C732        C741   1.379       .  A
C732        C733   1.385       .  A
C733        N739   1.343       .  A
C733        C734   1.402       .  A
C734        C735   1.401       .  A
C734        H743   1.082       .  S
C735        C738   1.375       .  A
N736        C737   1.357       .  A
N736        H746   1.044       .  S
C737        C738   1.395       .  A
C738        H744   1.083       .  S
N739        C740   1.355       .  A
N739        H747   1.044   1_655  S
C740        C741   1.397       .  A
C741        H745   1.082       .  S
C748        N754   1.348       .  A
C748        C753   1.384       .  A
C748        C749   1.411       .  A
C749        C750   1.409       .  A
C749        H760   1.082       .  S
C750        C759   1.390       .  A
C750        C751   1.384       .  A
C751        N757   1.338       .  A
C751        C752   1.400       .  A
C752        C753   1.397       .  A
C752        H761   1.083       .  S
C753        C756   1.375       .  A
N754        C755   1.359       .  A
N754        H764   1.044       .  S
C755        C756   1.393       .  A
C756        H762   1.083       .  S
N757        C758   1.354       .  A
N757        H765   1.045       .  S
C758        C759   1.399       .  A
C759        H763   1.082       .  S
C766        N772   1.343       .  A
C766        C771   1.385       .  A
C766        C767   1.400       .  A
C767        C768   1.400       .  A
C767        H778   1.083       .  S
C768        C777   1.370       .  A
C768        C769   1.384       .  A
C769        N775   1.352       .  A
C769        C770   1.410       .  A
C770        C771   1.411       .  A
C770        H779   1.082       .  S
C771        C774   1.385       .  A
N772        C773   1.354       .  A
N772        H782   1.045       .  S
C773        C774   1.400       .  A
C774        H780   1.082       .  S
N775        C776   1.358       .  A
N775        H783   1.045       .  S
C776        C777   1.395       .  A
C777        H781   1.083       .  S
C784        N790   1.343       .  A
C784        C789   1.384       .  A
C784        C785   1.401       .  A
C785        C786   1.401   1_655  A
C785        H796   1.083       .  S
C786        C795   1.373       .  A
C786        C787   1.385       .  A
C787        N793   1.351       .  A
C787        C788   1.409       .  A
C788        C789   1.409   1_455  A
C788        H797   1.082       .  S
C789        C792   1.384       .  A
N790        C791   1.355       .  A
N790        H800   1.046       .  S
C791        C792   1.400       .  A
C792        H798   1.082       .  S
N793        C794   1.358       .  A
N793        H801   1.045       .  S
C794        C795   1.394       .  A
C795        H799   1.083       .  S
C802        N808   1.345       .  A
C802        C807   1.385       .  A
C802        C803   1.405       .  A
C803        C804   1.405       .  A
C803        H814   1.082       .  S
C804        C813   1.381       .  A
C804        C805   1.384       .  A
C805        N811   1.345       .  A
C805        C806   1.405       .  A
C806        C807   1.404       .  A
C806        H815   1.082       .  S
C807        C810   1.380       .  A
N808        C809   1.355       .  A
N808        H818   1.044       .  S
C809        C810   1.394       .  A
C810        H816   1.082       .  S
N811        C812   1.356       .  A
N811        H819   1.045       .  S
C812        C813   1.397       .  A
C813        H817   1.082       .  S
C820        N826   1.344       .  A
C820        C825   1.385       .  A
C820        C821   1.404       .  A
C821        C822   1.403       .  A
C821        H832   1.082       .  S
C822        C831   1.379       .  A
C822        C823   1.386       .  A
C823        N829   1.341       .  A
C823        C824   1.400       .  A
C824        C825   1.399       .  A
C824        H833   1.082       .  S
C825        C828   1.374       .  A
N826        C827   1.356       .  A
N826        H836   1.045       .  S
C827        C828   1.394       .  A
C828        H834   1.083       .  S
N829        C830   1.352       .  A
N829        H837   1.045       .  S
C830        C831   1.393       .  A
C831        H835   1.082       .  S
C838        N844   1.349       .  A
C838        C843   1.384       .  A
C838        C839   1.412       .  A
C839        C840   1.410       .  A
C839        H850   1.082       .  S
C840        C849   1.390       .  A
C840        C841   1.384       .  A
C841        N847   1.339       .  A
C841        C842   1.401       .  A
C842        C843   1.399       .  A
C842        H851   1.083       .  S
C843        C846   1.375       .  A
N844        C845   1.360       .  A
N844        H854   1.044       .  S
C845        C846   1.394       .  A
C846        H852   1.083       .  S
N847        C848   1.355       .  A
N847        H855   1.045       .  S
C848        C849   1.400       .  A
C849        H853   1.082       .  S
C856        N862   1.348       .  A
C856        C861   1.384       .  A
C856        C857   1.410       .  A
C857        C858   1.409       .  A
C857        H868   1.082       .  S
C858        C867   1.388       .  A
C858        C859   1.384       .  A
C859        N865   1.338       .  A
C859        C860   1.400       .  A
C860        C861   1.398       .  A
C860        H869   1.083       .  S
C861        C864   1.375       .  A
N862        C863   1.359       .  A
N862        H872   1.044       .  S
C863        C864   1.393       .  A
C864        H870   1.083       .  S
N865        C866   1.355       .  A
N865        H873   1.045       .  S
C866        C867   1.398       .  A
C867        H871   1.082       .  S
C874        N880   1.349       .  A
C874        C879   1.383       .  A
C874        C875   1.412       .  A
C875        C876   1.410       .  A
C875        H886   1.082       .  S
C876        C885   1.391       .  A
C876        C877   1.384       .  A
C877        N883   1.341       .  A
C877        C878   1.404       .  A
C878        C879   1.401       .  A
C878        H887   1.082       .  S
C879        C882   1.380       .  A
N880        C881   1.360       .  A
N880        H890   1.044       .  S
C881        C882   1.396       .  A
C882        H888   1.082       .  S
N883        C884   1.356       .  A
N883        H891   1.045       .  S
C884        C885   1.400       .  A
C885        H889   1.082       .  S
C892        N898   1.340       .  A
C892        C897   1.385       .  A
C892        C893   1.401       .  A
C893        C894   1.399       .  A
C893        H904   1.083       .  S
C894        C903   1.375       .  A
C894        C895   1.384       .  A
C895        N901   1.345       .  A
C895        C896   1.406       .  A
C896        C897   1.405       .  A
C896        H905   1.082       .  S
C897        C900   1.383       .  A
N898        C899   1.355       .  A
N898        H908   1.045       .  S
C899        C900   1.397       .  A
C900        H906   1.082       .  S
N901        C902   1.357       .  A
N901        H909   1.045       .  S
C902        C903   1.394       .  A
C903        H907   1.083       .  S
C910        N916   1.340       .  A
C910        C915   1.384       .  A
C910        C911   1.398       .  A
C911        C912   1.397       .  A
C911        H922   1.083       .  S
C912        C921   1.369       .  A
C912        C913   1.384       .  A
C913        N919   1.353       .  A
C913        C914   1.412       .  A
C914        C915   1.413       .  A
C914        H923   1.082       .  S
C915        C918   1.388       .  A
N916        C917   1.353       .  A
N916        H926   1.045       .  S
C917        C918   1.402       .  A
C918        H924   1.082       .  S
N919        C920   1.360       .  A
N919        H927   1.045       .  S
C920        C921   1.392       .  A
C921        H925   1.083       .  S
C928        N934   1.352       .  A
C928        C933   1.384       .  A
C928        C929   1.411       .  A
C929        C930   1.411       .  A
C929        H940   1.082       .  S
C930        C939   1.386       .  A
C930        C931   1.384       .  A
C931        N937   1.342       .  A
C931        C932   1.399       .  A
C932        C933   1.399       .  A
C932        H941   1.083       .  S
C933        C936   1.370       .  A
N934        C935   1.359       .  A
N934        H944   1.045       .  S
C935        C936   1.394       .  A
C936        H942   1.083       .  S
N937        C938   1.354       .  A
N937        H945   1.045       .  S
C938        C939   1.400       .  A
C939        H943   1.082       .  S
C946        N952   1.343       .  A
C946        C951   1.386       .  A
C946        C947   1.402       .  A
C947        C948   1.402       .  A
C947        H958   1.082       .  S
C948        C957   1.376       .  A
C948        C949   1.385       .  A
C949        N955   1.343       .  A
C949        C950   1.402       .  A
C950        C951   1.402       .  A
C950        H959   1.082       .  S
C951        C954   1.377       .  A
N952        C953   1.353       .  A
N952        H962   1.045       .  S
C953        C954   1.392       .  A
C954        H960   1.082       .  S
N955        C956   1.355       .  A
N955        H963   1.045       .  S
C956        C957   1.395       .  A
C957        H961   1.083   1_565  S
C964        N970   1.341       .  A
C964        C969   1.385       .  A
C964        C965   1.398       .  A
C965        C966   1.398       .  A
C965        H976   1.082       .  S
C966        C975   1.370       .  A
C966        C967   1.384       .  A
C967        N973   1.353       .  A
C967        C968   1.412       .  A
C968        C969   1.412       .  A
C968        H977   1.082       .  S
C969        C972   1.386       .  A
N970        C971   1.353       .  A
N970        H980   1.045       .  S
C971        C972   1.401       .  A
C972        H978   1.082       .  S
N973        C974   1.359       .  A
N973        H981   1.045       .  S
C974        C975   1.392       .  A
C975        H979   1.083       .  S
C982        N988   1.341       .  A
C982        C987   1.385       .  A
C982        C983   1.398   1_565  A
C983        C984   1.398       .  A
C983        H994   1.082       .  S
C984        C993   1.370       .  A
C984        C985   1.385       .  A
C985        N991   1.350       .  A
C985        C986   1.409       .  A
C986        C987   1.409   1_545  A
C986        H995   1.082       .  S
C987        C990   1.383       .  A
N988        C989   1.353       .  A
N988        H998   1.044       .  S
C989        C990   1.400       .  A
C990        H996   1.082       .  S
N991        C992   1.358       .  A
N991        H999   1.044       .  S
C992        C993   1.392       .  A
C993        H997   1.083       .  S
C1000      N1006   1.339       .  A
C1000      C1005   1.384       .  A
C1000      C1001   1.401       .  A
C1001      C1002   1.399       .  A
C1001      H1012   1.083       .  S
C1002      C1011   1.375       .  A
C1002      C1003   1.384       .  A
C1003      N1009   1.347       .  A
C1003      C1004   1.409       .  A
C1004      C1005   1.408       .  A
C1004      H1013   1.082       .  S
C1005      C1008   1.386       .  A
N1006      C1007   1.355       .  A
N1006      H1016   1.045       .  S
C1007      C1008   1.397       .  A
C1008      H1014   1.082       .  S
N1009      C1010   1.358       .  A
N1009      H1017   1.044       .  S
C1010      C1011   1.394       .  A
C1011      H1015   1.083       .  S
C1018      N1024   1.343       .  A
C1018      C1023   1.384       .  A
C1018      C1019   1.405       .  A
C1019      C1020   1.403       .  A
C1019      H1030   1.082       .  S
C1020      C1029   1.381       .  A
C1020      C1021   1.384       .  A
C1021      N1027   1.343       .  A
C1021      C1022   1.404       .  A
C1022      C1023   1.403       .  A
C1022      H1031   1.082       .  S
C1023      C1026   1.380       .  A
N1024      C1025   1.357       .  A
N1024      H1034   1.044       .  S
C1025      C1026   1.395       .  A
C1026      H1032   1.082       .  S
N1027      C1028   1.356       .  A
N1027      H1035   1.045       .  S
C1028      C1029   1.397       .  A
C1029      H1033   1.082       .  S
C1036      N1042   1.338       .  A
C1036      C1041   1.384       .  A
C1036      C1037   1.399       .  A
C1037      C1038   1.397       .  A
C1037      H1048   1.082       .  S
C1038      C1047   1.374       .  A
C1038      C1039   1.383       .  A
C1039      N1045   1.351       .  A
C1039      C1040   1.413       .  A
C1040      C1041   1.412       .  A
C1040      H1049   1.082       .  S
C1041      C1044   1.391       .  A
N1042      C1043   1.353       .  A
N1042      H1052   1.045       .  S
C1043      C1044   1.400       .  A
C1044      H1050   1.082       .  S
N1045      C1046   1.361       .  A
N1045      H1053   1.044       .  S
C1046      C1047   1.392       .  A
C1047      H1051   1.082       .  S
C1054      N1060   1.349       .  A
C1054      C1059   1.384       .  A
C1054      C1055   1.410       .  A
C1055      C1056   1.409       .  A
C1055      H1066   1.082       .  S
C1056      C1065   1.387       .  A
C1056      C1057   1.384       .  A
C1057      N1063   1.340       .  A
C1057      C1058   1.401       .  A
C1058      C1059   1.399       .  A
C1058      H1067   1.083       .  S
C1059      C1062   1.376       .  A
N1060      C1061   1.359       .  A
N1060      H1070   1.045       .  S
C1061      C1062   1.394       .  A
C1062      H1068   1.082       .  S
N1063      C1064   1.355       .  A
N1063      H1071   1.045       .  S
C1064      C1065   1.398       .  A
C1065      H1069   1.082       .  S
C1072      N1078   1.340       .  A
C1072      C1077   1.384       .  A
C1072      C1073   1.402       .  A
C1073      C1074   1.400       .  A
C1073      H1084   1.082       .  S
C1074      C1083   1.377       .  A
C1074      C1075   1.383       .  A
C1075      N1081   1.349       .  A
C1075      C1076   1.411       .  A
C1076      C1077   1.410       .  A
C1076      H1085   1.082       .  S
C1077      C1080   1.390       .  A
N1078      C1079   1.355       .  A
N1078      H1088   1.045       .  S
C1079      C1080   1.399       .  A
C1080      H1086   1.082       .  S
N1081      C1082   1.360       .  A
N1081      H1089   1.044       .  S
C1082      C1083   1.395       .  A
C1083      H1087   1.082       .  S
C1090      N1096   1.344       .  A
C1090      C1095   1.384       .  A
C1090      C1091   1.401       .  A
C1091      C1092   1.402       .  A
C1091      H1102   1.082       .  S
C1092      C1101   1.373       .  A
C1092      C1093   1.385       .  A
C1093      N1099   1.351       .  A
C1093      C1094   1.408       .  A
C1094      C1095   1.409       .  A
C1094      H1103   1.082       .  S
C1095      C1098   1.382       .  A
N1096      C1097   1.355       .  A
N1096      H1106   1.045       .  S
C1097      C1098   1.399       .  A
C1098      H1104   1.082       .  S
N1099      C1100   1.357       .  A
N1099      H1107   1.045       .  S
C1100      C1101   1.394       .  A
C1101      H1105   1.083       .  S
C1108      N1114   1.338       .  A
C1108      C1113   1.386       .  A
C1108      C1109   1.398       .  A
C1109      C1110   1.396       .  A
C1109      H1120   1.083       .  S
C1110      C1119   1.371       .  A
C1110      C1111   1.385       .  A
C1111      N1117   1.346       .  A
C1111      C1112   1.407       .  A
C1112      C1113   1.406       .  A
C1112      H1121   1.082       .  S
C1113      C1116   1.383       .  A
N1114      C1115   1.351       .  A
N1114      H1124   1.045       .  S
C1115      C1116   1.395       .  A
C1116      H1122   1.082       .  S
N1117      C1118   1.356       .  A
N1117      H1125   1.044       .  S
C1118      C1119   1.391       .  A
C1119      H1123   1.083       .  S
C1126      N1132   1.344       .  A
C1126      C1131   1.385       .  A
C1126      C1127   1.402       .  A
C1127      C1128   1.402       .  A
C1127      H1138   1.082       .  S
C1128      C1137   1.376       .  A
C1128      C1129   1.385       .  A
C1129      N1135   1.343       .  A
C1129      C1130   1.401       .  A
C1130      C1131   1.401       .  A
C1130      H1139   1.082       .  S
C1131      C1134   1.374       .  A
N1132      C1133   1.355       .  A
N1132      H1142   1.044       .  S
C1133      C1134   1.395       .  A
C1134      H1140   1.083       .  S
N1135      C1136   1.355       .  A
N1135      H1143   1.045       .  S
C1136      C1137   1.395       .  A
C1137      H1141   1.082       .  S
C1144      N1150   1.341       .  A
C1144      C1149   1.385       .  A
C1144      C1145   1.399       .  A
C1145      C1146   1.399       .  A
C1145      H1156   1.083       .  S
C1146      C1155   1.370       .  A
C1146      C1147   1.384       .  A
C1147      N1153   1.350       .  A
C1147      C1148   1.408       .  A
C1148      C1149   1.408       .  A
C1148      H1157   1.082       .  S
C1149      C1152   1.383       .  A
N1150      C1151   1.354       .  A
N1150      H1160   1.046       .  S
C1151      C1152   1.399       .  A
C1152      H1158   1.082       .  S
N1153      C1154   1.358       .  A
N1153      H1161   1.045       .  S
C1154      C1155   1.394       .  A
C1155      H1159   1.083       .  S
C1162      N1168   1.351       .  A
C1162      C1167   1.383       .  A
C1162      C1163   1.413       .  A
C1163      C1164   1.412       .  A
C1163      H1174   1.082       .  S
C1164      C1173   1.392       .  A
C1164      C1165   1.384       .  A
C1165      N1171   1.337       .  A
C1165      C1166   1.399       .  A
C1166      C1167   1.397       .  A
C1166      H1175   1.083       .  S
C1167      C1170   1.374       .  A
N1168      C1169   1.361       .  A
N1168      H1178   1.045       .  S
C1169      C1170   1.392       .  A
C1170      H1176   1.083       .  S
N1171      C1172   1.354       .  A
N1171      H1179   1.045       .  S
C1172      C1173   1.401       .  A
C1173      H1177   1.082       .  S
C1180      N1186   1.346       .  A
C1180      C1185   1.384       .  A
C1180      C1181   1.408       .  A
C1181      C1182   1.407       .  A
C1181      H1192   1.082       .  S
C1182      C1191   1.386       .  A
C1182      C1183   1.385       .  A
C1183      N1189   1.340       .  A
C1183      C1184   1.402       .  A
C1184      C1185   1.399       .  A
C1184      H1193   1.083       .  S
C1185      C1188   1.377       .  A
N1186      C1187   1.358       .  A
N1186      H1196   1.044       .  S
C1187      C1188   1.394       .  A
C1188      H1194   1.082       .  S
N1189      C1190   1.355       .  A
N1189      H1197   1.046       .  S
C1190      C1191   1.397       .  A
C1191      H1195   1.082       .  S
C1198      N1204   1.353       .  A
C1198      C1203   1.383       .  A
C1198      C1199   1.416       .  A
C1199      C1200   1.415       .  A
C1199      H1210   1.082       .  S
C1200      C1209   1.395       .  A
C1200      C1201   1.383       .  A
C1201      N1207   1.339       .  A
C1201      C1202   1.401       .  A
C1202      C1203   1.398       .  A
C1202      H1211   1.083       .  S
C1203      C1206   1.375       .  A
N1204      C1205   1.362       .  A
N1204      H1214   1.044       .  S
C1205      C1206   1.394       .  A
C1206      H1212   1.083       .  S
N1207      C1208   1.356       .  A
N1207      H1215   1.045       .  S
C1208      C1209   1.403       .  A
C1209      H1213   1.082       .  S
C1216      N1222   1.342       .  A
C1216      C1221   1.384       .  A
C1216      C1217   1.399       .  A
C1217      C1218   1.399       .  A
C1217      H1228   1.083       .  S
C1218      C1227   1.371       .  A
C1218      C1219   1.384       .  A
C1219      N1225   1.352       .  A
C1219      C1220   1.411       .  A
C1220      C1221   1.411       .  A
C1220      H1229   1.082       .  S
C1221      C1224   1.387       .  A
N1222      C1223   1.354       .  A
N1222      H1232   1.045       .  S
C1223      C1224   1.401       .  A
C1224      H1230   1.082       .  S
N1225      C1226   1.359       .  A
N1225      H1233   1.044       .  S
C1226      C1227   1.394       .  A
C1227      H1231   1.083   1_545  S
C1234      N1240   1.343       .  A
C1234      C1239   1.385       .  A
C1234      C1235   1.399       .  A
C1235      C1236   1.400       .  A
C1235      H1246   1.083       .  S
C1236      C1245   1.369       .  A
C1236      C1237   1.384       .  A
C1237      N1243   1.352       .  A
C1237      C1238   1.409       .  A
C1238      C1239   1.410       .  A
C1238      H1247   1.082       .  S
C1239      C1242   1.383       .  A
N1240      C1241   1.354       .  A
N1240      H1250   1.045       .  S
C1241      C1242   1.399       .  A
C1242      H1248   1.082       .  S
N1243      C1244   1.358       .  A
N1243      H1251   1.044       .  S
C1244      C1245   1.394       .  A
C1245      H1249   1.083   1_655  S
C1252      N1258   1.341       .  A
C1252      C1257   1.384       .  A
C1252      C1253   1.403   1_565  A
C1253      C1254   1.401       .  A
C1253      H1264   1.082       .  S
C1254      C1263   1.379       .  A
C1254      C1255   1.384       .  A
C1255      N1261   1.346       .  A
C1255      C1256   1.408   1_545  A
C1256      C1257   1.407       .  A
C1256      H1265   1.082       .  S
C1257      C1260   1.387       .  A
N1258      C1259   1.356       .  A
N1258      H1268   1.045       .  S
C1259      C1260   1.397       .  A
C1260      H1266   1.082       .  S
N1261      C1262   1.358       .  A
N1261      H1269   1.044       .  S
C1262      C1263   1.395       .  A
C1263      H1267   1.082       .  S
C1270      N1276   1.347       .  A
C1270      C1275   1.384       .  A
C1270      C1271   1.409   1_655  A
C1271      C1272   1.407       .  A
C1271      H1282   1.082       .  S
C1272      C1281   1.386       .  A
C1272      C1273   1.385       .  A
C1273      N1279   1.339       .  A
C1273      C1274   1.400   1_455  A
C1274      C1275   1.398       .  A
C1274      H1283   1.083       .  S
C1275      C1278   1.375       .  A
N1276      C1277   1.358       .  A
N1276      H1286   1.044       .  S
C1277      C1278   1.393       .  A
C1278      H1284   1.082       .  S
N1279      C1280   1.354       .  A
N1279      H1287   1.045       .  S
C1280      C1281   1.397       .  A
C1281      H1285   1.082       .  S
C1288      N1294   1.348       .  A
C1288      C1293   1.385       .  A
C1288      C1289   1.407       .  A
C1289      C1290   1.407       .  A
C1289      H1300   1.082       .  S
C1290      C1299   1.382       .  A
C1290      C1291   1.384       .  A
C1291      N1297   1.345       .  A
C1291      C1292   1.404       .  A
C1292      C1293   1.403       .  A
C1292      H1301   1.082       .  S
C1293      C1296   1.378       .  A
N1294      C1295   1.357       .  A
N1294      H1304   1.045       .  S
C1295      C1296   1.393       .  A
C1296      H1302   1.082       .  S
N1297      C1298   1.356       .  A
N1297      H1305   1.045       .  S
C1298      C1299   1.398       .  A
C1299      H1303   1.082       .  S
C1306      N1312   1.344       .  A
C1306      C1311   1.385       .  A
C1306      C1307   1.403       .  A
C1307      C1308   1.403       .  A
C1307      H1318   1.082       .  S
C1308      C1317   1.378       .  A
C1308      C1309   1.385       .  A
C1309      N1315   1.343       .  A
C1309      C1310   1.402       .  A
C1310      C1311   1.402       .  A
C1310      H1319   1.082       .  S
C1311      C1314   1.377       .  A
N1312      C1313   1.356       .  A
N1312      H1322   1.045       .  S
C1313      C1314   1.395       .  A
C1314      H1320   1.082       .  S
N1315      C1316   1.355       .  A
N1315      H1323   1.045   1_545  S
C1316      C1317   1.396       .  A
C1317      H1321   1.082   1_655  S
