geometry optimzed in LAMMPS
_audit_creation_date              2020-12-01 
_audit_creation_method            'lammps2cif' 
_symmetry_space_group_name_H-M    'P1' 
_symmetry_Int_Tables_number       1 
_symmetry_cell_setting            triclinic 
loop_ 
_symmetry_equiv_pos_as_xyz 
  x,y,z 
_cell_length_a                    29.38990424 
_cell_length_b                    29.327754031353304 
_cell_length_c                    29.47905324899226 
_cell_angle_alpha                 90.15816901786145 
_cell_angle_beta                  90.07936943443869 
_cell_angle_gamma                 90.10066118786126 
loop_ 
_atom_site_label 
_atom_site_type_symbol 
_atom_site_fract_x 
_atom_site_fract_y 
_atom_site_fract_z 
_atom_site_charge 
C1          C  0.42783839  0.60007537  0.86923802     0.42400
N2          N  0.44083733  0.55790062  0.92730841     0.01300
C3          C  0.63388611  0.55313422  0.06089390    -0.06600
H4          H  0.66335547  0.53021602  0.88603590     0.06800
C5          C  0.56922418  0.38713039  0.89385920    -0.06900
Co6        Co  0.52583343  0.58556475  0.97596734     0.74200
N7          N  0.60535135  0.54657164  0.92731042    -0.26100
Co8        Co  0.60309320  0.49655670  0.97698922     0.74100
C9          C  0.61076806  0.40208506  0.87097063     0.42500
N10         N  0.46350875  0.42304233  0.92895474     0.00900
N11         N  0.59819768  0.44563821  0.92806891     0.01000
N12         N  0.58310821  0.61106621  0.05875024    -0.46900
H13         H  0.49246277  0.64287000  0.88263964     0.06800
N14         N  0.57583486  0.58036604  0.92674870     0.01300
N15         N  0.59880313  0.44698496  0.02710629     0.01100
C16         C  0.61125175  0.40610130  0.08592995     0.42700
N17         N  0.43412102  0.45697945  0.92914878    -0.25600
C18         C  0.47151235  0.61876049  0.05948074    -0.06500
N19         N  0.41182296  0.56440848  0.89344516    -0.46700
N20         N  0.62749773  0.44119829  0.06125045    -0.46900
C21         C  0.43028387  0.60457262  0.08323783     0.42400
N22         N  0.57643548  0.58183506  0.02514925     0.01300
N23         N  0.43469082  0.45804224  0.02789969    -0.25600
N24         N  0.47496680  0.58716748  0.92680271    -0.26100
N25         N  0.46399166  0.42401987  0.02799661     0.00900
H26         H  0.37861366  0.47568347  0.07140516     0.06800
H27         H  0.54689372  0.36282794  0.07278940     0.06900
N28         N  0.60559649  0.54769752  0.02567263    -0.26100
N29         N  0.56431736  0.41611413  0.92868555    -0.25700
N30         N  0.44198975  0.55952557  0.02689069     0.01300
C31         C  0.62035809  0.59439849  0.87114934     0.42700
C32         C  0.40557061  0.45181428  0.89415012    -0.07000
N33         N  0.56471422  0.41769250  0.02772487    -0.25700
H34         H  0.54606938  0.35965699  0.88568542     0.06800
N35         N  0.58356392  0.60976319  0.89372790    -0.47000
H36         H  0.37799934  0.47467913  0.88589723     0.06800
C37         C  0.42143936  0.41129481  0.08569869     0.42500
C38         C  0.46966516  0.61534283  0.89151272    -0.06500
Co39       Co  0.43668846  0.50819551  0.97791699     0.73800
N40         N  0.45675871  0.39429432  0.89489224    -0.46700
C41         C  0.61881076  0.59518154  0.08266638     0.42800
N42         N  0.41370392  0.56774667  0.06088969    -0.46700
Co43       Co  0.51405814  0.41901873  0.97832558     0.73900
C44         C  0.56961948  0.39031880  0.06367619    -0.07000
C45         C  0.63494046  0.55237520  0.89337850    -0.06600
N46         N  0.47600350  0.58883334  0.02552582    -0.26100
N47         N  0.62666834  0.43860262  0.89404609    -0.46800
H48         H  0.66146314  0.53052985  0.06993222     0.06800
C49         C  0.40625208  0.45292135  0.06301418    -0.07000
Cl50       Cl  0.51989746  0.50231789  0.97729342    -0.50000
C51         C  0.42076218  0.41025974  0.87130973     0.42600
H52         H  0.49417909  0.64713232  0.06559888     0.06800
N53         N  0.45732989  0.39536106  0.06197322    -0.46700
C54         C  0.41778850  0.89880924  0.56721764     0.42400
N55         N  0.46293714  0.95506883  0.55573734     0.01300
C56         C  0.47837718  0.09188698  0.36719012    -0.06600
H57         H  0.49797374  0.90901542  0.33959644     0.06800
C58         C  0.63572943  0.91594023  0.43091468    -0.06900
Co59       Co  0.43972110  0.00567573  0.47163048     0.74200
N60         N  0.47871706  0.95503786  0.39314752    -0.26100
Co61       Co  0.53026429  0.00360941  0.39643079     0.74100
C62         C  0.62079334  0.89375511  0.38899320     0.42500
N63         N  0.59757958  0.95054146  0.53597335     0.00900
N64         N  0.57916598  0.95246185  0.40141120     0.01000
N65         N  0.42011900  0.09108554  0.41712816    -0.46900
H66         H  0.37662007  0.91528757  0.50241608     0.06800
N67         N  0.44421797  0.95579517  0.42167312     0.01300
N68         N  0.58167321  0.05195639  0.40244873     0.01100
C69         C  0.62532237  0.10939390  0.39060846     0.42700
N70         N  0.56295868  0.95178217  0.56433909    -0.25600
C71         C  0.40999111  0.09126616  0.52666575    -0.06500
N72         N  0.45407092  0.92144264  0.58418402    -0.46700
N73         N  0.58944907  0.08589582  0.37408142    -0.46900
C74         C  0.42466126  0.11355130  0.56858515     0.42400
N75         N  0.44696002  0.05541838  0.42247385     0.01300
N76         N  0.56667960  0.05093114  0.56581444    -0.25600
N77         N  0.43450049  0.95607166  0.52119177    -0.26100
N78         N  0.60131586  0.05043896  0.53744775     0.00900
H79         H  0.54808161  0.09447504  0.62127172     0.06800
H80         H  0.66725769  0.09375442  0.45533073     0.06900
N81         N  0.48137701  0.05500372  0.39385861    -0.26100
N82         N  0.60793347  0.95177118  0.43577386    -0.25700
N83         N  0.46619576  0.05467200  0.55667371     0.01300
C84         C  0.43274644  0.89599591  0.38128059     0.42700
C85         C  0.56453803  0.91514099  0.59121552    -0.07000
N86         N  0.61041084  0.05130963  0.43685097    -0.25700
H87         H  0.66236801  0.90648454  0.45436215     0.06800
N88         N  0.41597321  0.92109059  0.41580578    -0.47000
H89         H  0.54010085  0.90763550  0.61743885     0.06800
C90         C  0.61446073  0.10750705  0.58124032     0.42500
C91         C  0.40448244  0.92197096  0.52544025    -0.06500
Co92       Co  0.51468763  0.00318204  0.56182892     0.73800
N93         N  0.62318012  0.91392370  0.54169838    -0.46700
C94         C  0.43766111  0.11586283  0.38294203     0.42800
N95         N  0.45956100  0.08884620  0.58538907    -0.46700
Co96       Co  0.60563816  0.00102264  0.48671660     0.73900
C97         C  0.63958703  0.08624535  0.43233055    -0.07000
C98         C  0.47434017  0.91864385  0.36597197    -0.06600
N99         N  0.43766612  0.05534989  0.52212003    -0.26100
N100        N  0.58552571  0.91824004  0.37271760    -0.46800
H101        H  0.50210304  0.10089697  0.34069115     0.06800
C102        C  0.57186858  0.08570542  0.59478928    -0.07000
Cl103      Cl  0.52264300  0.00341543  0.47914688    -0.50000
C104        C  0.60433685  0.88966611  0.57585172     0.42600
H105        H  0.38279548  0.10017480  0.50364215     0.06800
N106        N  0.63064988  0.08384707  0.54534852    -0.46700
C107        C  0.91043602  0.60470862  0.56352287     0.42400
N108        N  0.96843673  0.56217340  0.55197102     0.01300
C109        C  0.10831304  0.55361783  0.36503996    -0.06600
H110        H  0.92764741  0.52971406  0.33393328     0.06800
C111        C  0.93815241  0.38973960  0.42503541    -0.06900
Co112      Co  0.01995764  0.58895954  0.46916375     0.74200
N113        N  0.97182632  0.54927318  0.38899940    -0.26100
Co114      Co  0.02184525  0.49907055  0.39241579     0.74100
C115        C  0.91583784  0.40362530  0.38303676     0.42500
N116        N  0.96915903  0.42721154  0.52991243     0.00900
N117        N  0.97244919  0.44806820  0.39611624     0.01000
N118        N  0.10653557  0.61147314  0.41584050    -0.46900
H119        H  0.92571125  0.64720305  0.49934222     0.06800
N120        N  0.97125914  0.58360826  0.41799481     0.01300
N121        N  0.07199488  0.44919526  0.39865007     0.01100
C122        C  0.13165364  0.40820641  0.38898058     0.42700
N123        N  0.96843612  0.46158032  0.55883274    -0.25600
C124        C  0.10363845  0.61986337  0.52662259    -0.06500
N125        N  0.93381789  0.56875639  0.57978062    -0.46700
N126        N  0.10741442  0.44315405  0.37161956    -0.46900
C127        C  0.12546411  0.60438948  0.56847825     0.42400
N128        N  0.07104120  0.58398236  0.42050483     0.01300
N129        N  0.06741792  0.46208640  0.56206914    -0.25600
N130        N  0.96921894  0.59151689  0.51819410    -0.26100
N131        N  0.06861920  0.42786678  0.53307999     0.00900
H132        H  0.10916048  0.48144582  0.61862648     0.06800
H133        H  0.11611586  0.36588372  0.45304547     0.06900
N134        N  0.07143630  0.54980373  0.39135558    -0.26100
N135        N  0.97257994  0.41907063  0.43018372    -0.25700
N136        N  0.06744605  0.56237749  0.55464423     0.01300
C137        C  0.91249174  0.59443215  0.37611291     0.42700
C138        C  0.93213374  0.45724726  0.58571966    -0.07000
N139        N  0.07150204  0.42032072  0.43286326    -0.25700
H140        H  0.93002030  0.36276051  0.44850528     0.06800
N141        N  0.93635535  0.61130336  0.41154059    -0.47000
H142        H  0.92267714  0.48061635  0.61249361     0.06800
C143        C  0.12538155  0.41619957  0.57735161     0.42500
C144        C  0.93385371  0.61993615  0.52250712    -0.06500
Co145      Co  0.01788023  0.51212640  0.55797869     0.73800
N146        N  0.93445731  0.39887735  0.53538115    -0.46700
C147        C  0.13181839  0.59438426  0.38157134     0.42800
N148        N  0.10099925  0.56878008  0.58393059    -0.46700
Co149      Co  0.02051276  0.42243883  0.48159909     0.73900
C150        C  0.10770630  0.39285091  0.42959215    -0.07000
C151        C  0.93613493  0.55324711  0.36093806    -0.06600
N152        N  0.06827338  0.59163951  0.52078047    -0.26100
N153        N  0.93890610  0.44014264  0.36706894    -0.46800
H154        H  0.11769109  0.53008995  0.33839423     0.06800
C155        C  0.10186513  0.45779646  0.59145121    -0.07000
Cl156      Cl  0.02001908  0.50566041  0.47525879    -0.50000
C157        C  0.90953662  0.41580499  0.56995626     0.42600
H158        H  0.11288261  0.64728981  0.50400752     0.06800
N159        N  0.10275947  0.39964280  0.54093766    -0.46700
C160        C  0.75279618  0.32856944  0.30098779     0.80200
N161        N  0.73471570  0.29038924  0.31953322    -0.78100
C162        C  0.69652138  0.27098042  0.30238842     0.82600
N163        N  0.67602424  0.29042603  0.26594781    -0.78100
C164        C  0.69348985  0.32887994  0.24690102     0.82700
N165        N  0.73200395  0.34761971  0.26456171    -0.79800
C166        C  0.74329847  0.66869595  0.30634907     0.80200
N167        N  0.72513848  0.70670174  0.32546209    -0.78100
C168        C  0.68694719  0.72620774  0.30811602     0.82600
N169        N  0.66703353  0.70742762  0.27080547    -0.78100
C170        C  0.68467149  0.66918214  0.25159992     0.82700
N171        N  0.72273883  0.65034111  0.26944399    -0.79800
C172        C  0.69414758  0.33109778  0.70747984     0.80200
N173        N  0.73017139  0.35157093  0.68729548    -0.78100
C174        C  0.74963576  0.33323352  0.64965238     0.82600
N175        N  0.73238458  0.29392713  0.63201851    -0.78100
C176        C  0.69626652  0.27301463  0.65183751     0.82700
N177        N  0.67761806  0.29186898  0.68950362    -0.79800
C178        C  0.35346456  0.73050827  0.30767855     0.80200
N179        N  0.31733740  0.70960742  0.32767430    -0.78100
C180        C  0.29720025  0.67274491  0.30776608     0.82600
N181        N  0.31341224  0.65731351  0.26735361    -0.78100
C182        C  0.34923586  0.67798779  0.24694847     0.82700
N183        N  0.36885052  0.71443177  0.26741719    -0.79800
C184        C  0.34259166  0.73885096  0.65378591     0.80200
N185        N  0.30580524  0.71875538  0.63489955    -0.78100
C186        C  0.28727994  0.68050155  0.65248751     0.82600
N187        N  0.30653552  0.66169871  0.69013245    -0.78100
C188        C  0.34381998  0.68135550  0.70985023     0.82700
N189        N  0.36156754  0.71995540  0.69127405    -0.79800
C190        C  0.34528547  0.33211578  0.70651213     0.80200
N191        N  0.30744390  0.35026608  0.68759036    -0.78100
C192        C  0.28890266  0.33262278  0.64928619     0.82600
N193        N  0.30886738  0.29585059  0.62963743    -0.78100
C194        C  0.34688533  0.27691880  0.64794079     0.82700
N195        N  0.36480779  0.29516653  0.68655318    -0.79800
C196        C  0.69040897  0.66968330  0.70402968     0.80200
N197        N  0.72769840  0.65182435  0.68354189    -0.78100
C198        C  0.74288131  0.66866838  0.64356747     0.82600
N199        N  0.72054889  0.70398429  0.62420512    -0.78100
C200        C  0.68337433  0.72254191  0.64406293     0.82700
N201        N  0.66846104  0.70517435  0.68407747    -0.79800
C202        C  0.36065741  0.28406060  0.31479013     0.80200
N203        N  0.32314720  0.30222408  0.33482056    -0.78100
C204        C  0.30131663  0.33838357  0.31609632     0.82600
N205        N  0.31733862  0.35604181  0.27669803    -0.78100
C206        C  0.35453410  0.33832055  0.25599691     0.82700
N207        N  0.37592074  0.30227610  0.27534111    -0.79800
C208        C  0.16699555  0.39524829  0.59641844    -0.05500
C209        C  0.18795914  0.35955360  0.57247242    -0.32900
C210        C  0.22729217  0.33853863  0.58901530     0.36300
C211        C  0.24699386  0.35348211  0.63016979    -0.05900
C212        C  0.22585247  0.38924571  0.65403796    -0.32800
C213        C  0.18621801  0.40973408  0.63786453     0.36200
H214        H  0.17389296  0.34773943  0.54053268     0.16600
O215        O  0.24633798  0.30399704  0.56409389    -0.60300
H216        H  0.23967512  0.40140099  0.68591884     0.16600
O217        O  0.16676433  0.44362232  0.66331242    -0.60400
H218        H  0.14523694  0.42778606  0.68389245     0.43600
H219        H  0.23027089  0.27593149  0.57388036     0.43600
C220        C  0.24613063  0.66049547  0.63062178    -0.05500
C221        C  0.22700157  0.61995865  0.64738252    -0.32900
C222        C  0.18771959  0.60121406  0.62769575     0.36300
C223        C  0.16698400  0.62280468  0.59025961    -0.05900
C224        C  0.18631655  0.66286101  0.57324133    -0.32800
C225        C  0.22509228  0.68184332  0.59293706     0.36200
H226        H  0.24237292  0.60263541  0.67594302     0.16600
O227        O  0.17059101  0.56128711  0.64480593    -0.60300
H228        H  0.17123454  0.68024756  0.54462181     0.16600
O229        O  0.24203230  0.72123986  0.57445568    -0.60400
H230        H  0.22445016  0.74624808  0.58884489     0.43600
H231        H  0.15116210  0.57053292  0.67070994     0.43600
C232        C  0.25691414  0.65060553  0.32902124    -0.05500
C233        C  0.23418878  0.67237043  0.36504281    -0.32900
C234        C  0.19424983  0.65394242  0.38345187     0.36300
C235        C  0.17574980  0.61331151  0.36544988    -0.05900
C236        C  0.19962815  0.59046680  0.33106982    -0.32800
C237        C  0.23971213  0.60851239  0.31298092     0.36200
H238        H  0.24683444  0.70433468  0.37861465     0.16600
O239        O  0.17310468  0.67668193  0.41822680    -0.60300
H240        H  0.18725020  0.55844988  0.31752976     0.16600
O241        O  0.26211250  0.58405073  0.28018854    -0.60400
H242        H  0.24378496  0.58789372  0.25220237     0.43600
H243        H  0.18844462  0.66603919  0.44623031     0.43600
C244        C  0.25889726  0.35704558  0.33649988    -0.05500
C245        C  0.23513969  0.39172760  0.31362544    -0.32900
C246        C  0.19390410  0.40860090  0.33016199     0.36300
C247        C  0.17543887  0.39120030  0.37068993    -0.05900
C248        C  0.19942442  0.35716042  0.39406995    -0.32800
C249        C  0.24073055  0.34024133  0.37756318     0.36200
H250        H  0.24809303  0.40569370  0.28222696     0.16600
O251        O  0.17215620  0.44223583  0.30628833    -0.60300
H252        H  0.18635681  0.34334924  0.42545653     0.16600
O253        O  0.26244806  0.30680722  0.40172233    -0.60400
H254        H  0.28142749  0.32326035  0.42428700     0.43600
H255        H  0.15322075  0.42596474  0.28354863     0.43600
C256        C  0.86763018  0.62163509  0.58351037    -0.05500
C257        C  0.84393927  0.59369470  0.61408536    -0.32900
C258        C  0.80298879  0.60798876  0.63341002     0.36300
C259        C  0.78514639  0.65124824  0.62265376    -0.05900
C260        C  0.80893970  0.67913435  0.59207785    -0.32800
C261        C  0.84991585  0.66490864  0.57289601     0.36200
H262        H  0.85688137  0.56024560  0.62273355     0.16600
O263        O  0.78075075  0.57914266  0.66244643    -0.60300
H264        H  0.79639260  0.71276076  0.58365565     0.16600
O265        O  0.87257403  0.69418000  0.54464615    -0.60400
H266        H  0.89379491  0.71133603  0.56459056     0.43600
H267        H  0.75939182  0.56152462  0.64307711     0.43600
C268        C  0.86814571  0.39475865  0.58905970    -0.05500
C269        C  0.85386876  0.40795408  0.63246673    -0.32900
C270        C  0.81563878  0.38839222  0.65248183     0.36300
C271        C  0.79005653  0.35514444  0.62880667    -0.05900
C272        C  0.80415865  0.34215613  0.58501668    -0.32800
C273        C  0.84279328  0.36169454  0.56511423     0.36200
H274        H  0.87295893  0.43290461  0.65181475     0.16600
O275        O  0.80432045  0.40171129  0.69562921    -0.60300
H276        H  0.78517993  0.31684080  0.56595297     0.16600
O277        O  0.85535488  0.34813612  0.52236781    -0.60400
H278        H  0.83942725  0.36924923  0.50146397     0.43600
H279        H  0.82131626  0.38083572  0.71594610     0.43600
C280        C  0.79484086  0.34846631  0.32081420    -0.05500
C281        C  0.81882913  0.32323673  0.35344879    -0.32900
C282        C  0.85820608  0.34037996  0.37374998     0.36300
C283        C  0.87466224  0.38386670  0.36170275    -0.05900
C284        C  0.85118075  0.40901919  0.32865916    -0.32800
C285        C  0.81158860  0.39181814  0.30833105     0.36200
H286        H  0.80740891  0.28955087  0.36329613     0.16600
O287        O  0.88129649  0.31316217  0.40366202    -0.60300
H288        H  0.86325169  0.44247891  0.31878208     0.16600
O289        O  0.78986121  0.41774796  0.27632007    -0.60400
H290        H  0.76860109  0.43740041  0.29363454     0.43600
H291        H  0.86249637  0.31271267  0.43157612     0.43600
C292        C  0.78611815  0.64867044  0.32445386    -0.05500
C293        C  0.80844322  0.66997241  0.36104752    -0.32900
C294        C  0.84928107  0.65270296  0.37832471     0.36300
C295        C  0.86908127  0.61347111  0.35884994    -0.05900
C296        C  0.84668337  0.59193272  0.32258357    -0.32800
C297        C  0.80582343  0.60905898  0.30532584     0.36200
H298        H  0.79439284  0.70039033  0.37649612     0.16600
O299        O  0.86969212  0.67497369  0.41392290    -0.60300
H300        H  0.86073415  0.56156767  0.30714821     0.16600
O301        O  0.78538981  0.58617238  0.27012275    -0.60400
H302        H  0.80054764  0.59760304  0.24231227     0.43600
H303        H  0.85540532  0.66209315  0.44154872     0.43600
C304        C  0.63600944  0.14903283  0.60019485    -0.05500
C305        C  0.66890572  0.17218595  0.57447192    -0.32900
C306        C  0.68947402  0.21211951  0.59074630     0.36300
C307        C  0.67705856  0.22985248  0.63353869    -0.05900
C308        C  0.64483997  0.20597477  0.65955388    -0.32800
C309        C  0.62432928  0.16618662  0.64331725     0.36200
H310        H  0.67842664  0.15962907  0.54122103     0.16600
O311        O  0.72057446  0.23402378  0.56383496    -0.60300
H312        H  0.63519969  0.21804517  0.69294320     0.16600
O313        O  0.59417355  0.14369274  0.67078612    -0.60400
H314        H  0.56571805  0.16183313  0.66953420     0.43600
H315        H  0.75002451  0.21883812  0.57016054     0.43600
C316        C  0.40602084  0.15575756  0.58905307    -0.05500
C317        C  0.37760670  0.18388902  0.56306591    -0.32900
C318        C  0.35883237  0.22364125  0.58132490     0.36300
C319        C  0.36790037  0.23600093  0.62679720    -0.05900
C320        C  0.39703410  0.20821793  0.65258268    -0.32800
C321        C  0.41583999  0.16839583  0.63419509     0.36200
H322        H  0.37001903  0.17543693  0.52813654     0.16600
O323        O  0.33182007  0.25008966  0.55409865    -0.60300
H324        H  0.40464275  0.21678648  0.68755069     0.16600
O325        O  0.44328438  0.14190014  0.66095785    -0.60400
H326        H  0.42236367  0.12042503  0.67643787     0.43600
H327        H  0.35277238  0.27247058  0.53996816     0.43600
C328        C  0.38246475  0.24267807  0.33398586    -0.05500
C329        C  0.35960116  0.21770449  0.36761194    -0.32900
C330        C  0.37730185  0.17675555  0.38407132     0.36300
C331        C  0.41887087  0.15983498  0.36710739    -0.05900
C332        C  0.44251185  0.18539620  0.33460751    -0.32800
C333        C  0.42469318  0.22626310  0.31789833     0.36200
H334        H  0.32713101  0.22921806  0.38062338     0.16600
O335        O  0.35266178  0.15283381  0.41554745    -0.60300
H336        H  0.47487869  0.17369257  0.32160500     0.16600
O337        O  0.44931322  0.25001458  0.28628373    -0.60400
H338        H  0.44321184  0.23439538  0.25698116     0.43600
H339        H  0.35982793  0.16746104  0.44508206     0.43600
C340        C  0.67758169  0.22961509  0.32439482    -0.05500
C341        C  0.69156929  0.21873159  0.36872583    -0.32900
C342        C  0.67487892  0.18016506  0.39097319     0.36300
C343        C  0.64404471  0.15082353  0.36872270    -0.05900
C344        C  0.62992887  0.16167343  0.32444654    -0.32800
C345        C  0.64619482  0.20063608  0.30235508     0.36200
H346        H  0.71524432  0.24057961  0.38678386     0.16600
O347        O  0.68879997  0.17207769  0.43458569    -0.60300
H348        H  0.60623235  0.13971211  0.30654211     0.16600
O349        O  0.63235680  0.20899298  0.25871961    -0.60400
H350        H  0.60084479  0.22071377  0.26147216     0.43600
H351        H  0.66674668  0.18855778  0.45403613     0.43600
C352        C  0.36155797  0.78040917  0.63245469    -0.05500
C353        C  0.35060275  0.78997347  0.58698154    -0.32900
C354        C  0.36803385  0.82844232  0.56522398     0.36300
C355        C  0.39714532  0.85843324  0.58891725    -0.05900
C356        C  0.40760673  0.84927602  0.63448551    -0.32800
C357        C  0.38969699  0.81107268  0.65640587     0.36200
H358        H  0.32888780  0.76716486  0.56769215     0.16600
O359        O  0.35672280  0.83571141  0.52070984    -0.60300
H360        H  0.42945536  0.87215730  0.65354558     0.16600
O361        O  0.39948558  0.80462208  0.70138708    -0.60400
H362        H  0.37416307  0.81939245  0.71806075     0.43600
H363        H  0.37942107  0.81827762  0.50287142     0.43600
C364        C  0.62192090  0.84520565  0.59198817    -0.05500
C365        C  0.66234710  0.82850324  0.57303461    -0.32900
C366        C  0.68198770  0.78812083  0.58846943     0.36300
C367        C  0.66130272  0.76326420  0.62394415    -0.05900
C368        C  0.61981774  0.77896901  0.64165299    -0.32800
C369        C  0.59987887  0.81915886  0.62573564     0.36200
H370        H  0.67952984  0.84721484  0.54642672     0.16600
O371        O  0.72176730  0.77386362  0.56877451    -0.60300
H372        H  0.60268232  0.76022791  0.66827123     0.16600
O373        O  0.55921713  0.83252988  0.64405828    -0.60400
H374        H  0.53559272  0.81765531  0.62502169     0.43600
H375        H  0.74622285  0.79077775  0.58485698     0.43600
C376        C  0.63799648  0.85113218  0.36829723    -0.05500
C377        C  0.60927011  0.82529035  0.34004990    -0.32900
C378        C  0.62421618  0.78432163  0.32058718     0.36300
C379        C  0.66896970  0.76879157  0.32871474    -0.05900
C380        C  0.69758658  0.79490702  0.35688504    -0.32800
C381        C  0.68264105  0.83569974  0.37630366     0.36200
H382        H  0.57474560  0.83648051  0.33356933     0.16600
O383        O  0.59458406  0.75974908  0.29407639    -0.60300
H384        H  0.73223895  0.78420000  0.36339718     0.16600
O385        O  0.71250806  0.86053881  0.40223571    -0.60400
H386        H  0.72763726  0.88168393  0.38073988     0.43600
H387        H  0.57787007  0.73974716  0.31544807     0.43600
C388        C  0.41299632  0.85263537  0.36447809    -0.05500
C389        C  0.43542418  0.82856507  0.33003079    -0.32900
C390        C  0.41724403  0.78835889  0.31222645     0.36300
C391        C  0.37531576  0.77124391  0.32852872    -0.05900
C392        C  0.35362131  0.79449449  0.36418564    -0.32800
C393        C  0.37197131  0.83488049  0.38200900     0.36200
H394        H  0.46728452  0.84082343  0.31632665     0.16600
O395        O  0.44081438  0.76657689  0.27842097    -0.60300
H396        H  0.32170583  0.78202842  0.37772448     0.16600
O397        O  0.34932050  0.85664033  0.41644055    -0.60400
H398        H  0.32682855  0.87657264  0.40117438     0.43600
H399        H  0.46175457  0.74543013  0.29428769     0.43600
C400        C  0.67145167  0.34992065  0.20677216    -0.05500
C401        C  0.69650865  0.37996573  0.17925831    -0.32900
C402        C  0.67725121  0.39914406  0.14028613     0.36300
C403        C  0.63216179  0.38825536  0.12794796    -0.05900
C404        C  0.60676087  0.35936683  0.15607274    -0.32800
C405        C  0.62589737  0.34020206  0.19502267     0.36200
H406        H  0.73156533  0.38807359  0.18739022     0.16600
O407        O  0.70352087  0.42695345  0.11363777    -0.60300
H408        H  0.57177645  0.35132024  0.14799343     0.16600
O409        O  0.59923870  0.31299585  0.22189538    -0.60400
H410        H  0.59613475  0.28386227  0.20500015     0.43600
H411        H  0.70019931  0.45788652  0.12690002     0.43600
C412        C  0.66485166  0.64961471  0.20983182    -0.05500
C413        C  0.64361745  0.67821820  0.17813408    -0.32900
C414        C  0.62867040  0.66097127  0.13640086     0.36300
C415        C  0.63465779  0.61445195  0.12601717    -0.05900
C416        C  0.65500224  0.58572104  0.15802840    -0.32800
C417        C  0.66950117  0.60278194  0.19983350     0.36200
H418        H  0.63983959  0.71430769  0.18508693     0.16600
O419        O  0.60914256  0.69008068  0.10570446    -0.60300
H420        H  0.65895274  0.54965114  0.15110460     0.16600
O421        O  0.68779635  0.57319093  0.23081696    -0.60400
H422        H  0.66182286  0.56343326  0.24998129     0.43600
H423        H  0.63449250  0.70037423  0.08602636     0.43600
C424        C  0.36841821  0.66036387  0.20379577    -0.05500
C425        C  0.41268253  0.67337475  0.19132292    -0.32900
C426        C  0.43322847  0.65595112  0.15232128     0.36300
C427        C  0.40939929  0.62493549  0.12429214    -0.05900
C428        C  0.36477105  0.61260504  0.13615350    -0.32800
C429        C  0.34410468  0.63031612  0.17516976     0.36200
H430        H  0.43224908  0.69646323  0.21245979     0.16600
O431        O  0.47692111  0.66910968  0.14277935    -0.60300
H432        H  0.34556939  0.58924723  0.11494861     0.16600
O433        O  0.30012999  0.61804837  0.18467502    -0.60400
H434        H  0.28100854  0.64199425  0.17047281     0.43600
H435        H  0.49663444  0.64665796  0.15855729     0.43600
C436        C  0.40378416  0.39124339  0.12834601    -0.05500
C437        C  0.36461052  0.40959362  0.14842960    -0.32900
C438        C  0.34800201  0.39279141  0.18954688     0.36300
C439        C  0.37079551  0.35686548  0.21193705    -0.05900
C440        C  0.40960832  0.33797668  0.19132613    -0.32800
C441        C  0.42606207  0.35474335  0.15007980     0.36200
H442        H  0.34648305  0.43729812  0.13240516     0.16600
O443        O  0.30976543  0.41245229  0.20758053    -0.60300
H444        H  0.42772671  0.31015273  0.20724870     0.16600
O445        O  0.46408116  0.33513648  0.13157082    -0.60400
H446        H  0.49005964  0.35166974  0.14550242     0.43600
H447        H  0.28386688  0.39555373  0.19392126     0.43600
C448        C  0.63977692  0.61573526  0.83019143    -0.05500
C449        C  0.67660231  0.59484742  0.80837345    -0.32900
C450        C  0.69375104  0.61204031  0.76777599     0.36300
C451        C  0.67427451  0.65134856  0.74808204    -0.05900
C452        C  0.63838316  0.67320681  0.77091280    -0.32800
C453        C  0.62130496  0.65592901  0.81163268     0.36200
H454        H  0.69194568  0.56435768  0.82210904     0.16600
O455        O  0.72939098  0.58965613  0.74774149    -0.60300
H456        H  0.62306365  0.70375001  0.75712098     0.16600
O457        O  0.58583918  0.67812901  0.83224454    -0.60400
H458        H  0.60029197  0.70093162  0.85260115     0.43600
H459        H  0.71539072  0.56371605  0.73114592     0.43600
C460        C  0.63216995  0.38338153  0.82954875    -0.05500
C461        C  0.66311406  0.41048486  0.80527594    -0.32900
C462        C  0.68352024  0.39438094  0.76547001     0.36300
C463        C  0.67347233  0.35006524  0.74939372    -0.05900
C464        C  0.64286433  0.32291901  0.77413444    -0.35300
C465        C  0.62256658  0.33900248  0.81382801     0.36200
H466        H  0.67112529  0.44469236  0.81680719     0.16600
O467        O  0.71298539  0.42246227  0.74270823    -0.60300
H468        H  0.63480671  0.28857761  0.76310221     0.16600
O469        O  0.59397919  0.31052410  0.83713298    -0.60400
H470        H  0.61390720  0.29351496  0.85832911     0.43600
H471        H  0.69364778  0.44025072  0.72161803     0.43600
C472        C  0.36468819  0.35243650  0.74861589    -0.05500
C473        C  0.40186354  0.33148750  0.77019153    -0.32900
C474        C  0.42048258  0.34971402  0.81009210     0.36300
C475        C  0.40204445  0.38972623  0.82928632    -0.05900
C476        C  0.36510909  0.41071530  0.80770140    -0.32800
C477        C  0.34661506  0.39278333  0.76786414     0.36200
H478        H  0.41666767  0.30069481  0.75626798     0.16600
O479        O  0.45711916  0.32838737  0.82950485    -0.60300
H480        H  0.35022208  0.44150281  0.82139729     0.16600
O481        O  0.31060261  0.41517248  0.74847016    -0.60400
H482        H  0.32447354  0.43862560  0.72858648     0.43600
H483        H  0.44390294  0.30513215  0.85000512     0.43600
C484        C  0.40571206  0.62024120  0.82865593    -0.05500
C485        C  0.41806710  0.66429290  0.81491109    -0.32900
C486        C  0.39815646  0.68463385  0.77691054     0.36300
C487        C  0.36512131  0.66083028  0.75106557    -0.05900
C488        C  0.35274150  0.61659381  0.76492714    -0.32800
C489        C  0.37263229  0.59636509  0.80325704     0.36200
H490        H  0.44304693  0.68363226  0.83396051     0.16600
O491        O  0.41156794  0.72791554  0.76559846    -0.60300
H492        H  0.32788711  0.59719405  0.74572948     0.16600
O493        O  0.36078454  0.55254834  0.81438089    -0.60400
H494        H  0.33280976  0.55542808  0.83291878     0.43600
H495        H  0.39138125  0.74844009  0.78321608     0.43600
loop_ 
_geom_bond_atom_site_label_1 
_geom_bond_atom_site_label_2 
_geom_bond_distance 
_geom_bond_site_symmetry_2 
_ccdc_geom_bond_type 
C1           N19   1.352       .  A
C1           C38   1.462       .  S
C1          C484   1.486       .  S
N2           N19   1.326       .  A
N2           N24   1.319       .  A
N2          Co39   2.092       .  S
C3           N28   1.338       .  A
C3           C41   1.459       .  S
C3           H48   1.081       .  S
H4           C45   1.081       .  S
C5           N29   1.339       .  A
C5            C9   1.463       .  S
C5           H34   1.080       .  S
Co6          N24   2.081       .  S
Co6          N14   2.072       .  S
Co6          N46   2.072   1_556  S
Co6          N22   2.079   1_556  S
Co6         Cl50   2.448       .  S
N7           C45   1.337       .  A
N7           N14   1.318       .  A
N7           Co8   2.077       .  S
Co8          N11   2.078       .  S
Co8          N28   2.074   1_556  S
Co8          N15   2.079   1_556  S
Co8         Cl50   2.451       .  S
C9           N47   1.350       .  A
C9          C460   1.479       .  S
N10          N17   1.319       .  A
N10          N40   1.324       .  A
N10         Co43   2.082       .  S
N11          N29   1.319       .  A
N11          N47   1.323       .  A
N12          C41   1.348       .  A
N12          N22   1.322       .  A
H13          C38   1.081       .  S
N14          N35   1.322       .  A
N15          N33   1.319       .  A
N15          N20   1.324       .  A
C16          N20   1.349       .  A
C16          C44   1.461       .  S
C16         C403   1.479       .  S
N17          C32   1.337       .  A
N17         Co39   2.078       .  S
C18          N46   1.336       .  A
C18          C21   1.461       .  S
C18          H52   1.080       .  S
C21          N42   1.353       .  A
C21         C427   1.482       .  S
N22          N28   1.319       .  A
N23          C49   1.340       .  A
N23          N25   1.319       .  A
N23         Co39   2.086   1_554  S
N24          C38   1.339       .  A
N25          N53   1.324       .  A
N25         Co43   2.082   1_554  S
H26          C49   1.081       .  S
H27          C44   1.081       .  S
N29         Co43   2.082       .  S
N30          N42   1.325       .  A
N30          N46   1.318       .  A
N30         Co39   2.088   1_554  S
C31          N35   1.348       .  A
C31          C45   1.462       .  S
C31         C448   1.476       .  S
C32          C51   1.462       .  S
C32          H36   1.081       .  S
N33          C44   1.339       .  A
N33         Co43   2.082   1_554  S
C37          N53   1.350       .  A
C37          C49   1.464       .  S
C37         C436   1.483       .  S
Co39        Cl50   2.452       .  S
N40          C51   1.350       .  A
C41         C415   1.471       .  S
Co43        Cl50   2.449       .  S
C51         C475   1.481       .  S
C54          N72   1.350       .  A
C54          C91   1.461       .  S
C54         C355   1.477       .  S
N55          N72   1.322       .  A
N55          N77   1.317       .  A
N55         Co92   2.080   1_565  S
C56          N81   1.342       .  A
C56          C94   1.464       .  S
C56         H101   1.081       .  S
H57          C98   1.081       .  S
C58          N82   1.340       .  A
C58          C62   1.462       .  S
C58          H87   1.081       .  S
Co59         N77   2.070   1_545  S
Co59         N67   2.077   1_545  S
Co59         N99   2.081       .  S
Co59         N75   2.070       .  S
Co59       Cl103   2.448       .  S
N60          C98   1.339       .  A
N60          N67   1.318       .  A
N60         Co61   2.080   1_565  S
Co61         N64   2.085   1_545  S
Co61         N81   2.086       .  S
Co61         N68   2.077       .  S
Co61       Cl103   2.449       .  S
C62         N100   1.350       .  A
C62         C376   1.480       .  S
N63          N70   1.318       .  A
N63          N93   1.323       .  A
N63         Co96   2.090   1_565  S
N64          N82   1.319       .  A
N64         N100   1.324       .  A
N65          C94   1.347       .  A
N65          N75   1.321       .  A
H66          C91   1.080       .  S
N67          N88   1.323       .  A
N68          N86   1.319       .  A
N68          N73   1.322       .  A
C69          N73   1.348       .  A
C69          C97   1.468       .  S
C69         C343   1.483       .  S
N70          C85   1.338       .  A
N70         Co92   2.073   1_565  S
C71          N99   1.339       .  A
C71          C74   1.461       .  S
C71         H105   1.081       .  S
C74          N95   1.351       .  A
C74         C316   1.482       .  S
N75          N81   1.318       .  A
N76         C102   1.337       .  A
N76          N78   1.318       .  A
N76         Co92   2.074       .  S
N77          C91   1.339       .  A
N78         N106   1.324       .  A
N78         Co96   2.084       .  S
H79         C102   1.080       .  S
H80          C97   1.080       .  S
N82         Co96   2.082   1_565  S
N83          N95   1.325       .  A
N83          N99   1.319       .  A
N83         Co92   2.084       .  S
C84          N88   1.349       .  A
C84          C98   1.463       .  S
C84         C388   1.481       .  S
C85         C104   1.461       .  S
C85          H89   1.079       .  S
N86          C97   1.342       .  A
N86         Co96   2.090       .  S
C90         N106   1.351       .  A
C90         C102   1.461       .  S
C90         C304   1.480       .  S
Co92       Cl103   2.449       .  S
N93         C104   1.353       .  A
C94         C331   1.480       .  S
Co96       Cl103   2.450       .  S
C104        C364   1.483       .  S
C107        N125   1.348       .  A
C107        C144   1.463       .  S
C107        C256   1.476       .  S
N108        N125   1.322       .  A
N108        N130   1.318       .  A
N108       Co145   2.075   1_655  S
C109        N134   1.338       .  A
C109        C147   1.462       .  S
C109        H154   1.080       .  S
H110        C151   1.081       .  S
C111        N135   1.335       .  A
C111        C115   1.460       .  S
C111        H140   1.079       .  S
Co112       N130   2.079   1_455  S
Co112       N120   2.083   1_455  S
Co112       N152   2.081       .  S
Co112       N128   2.083       .  S
Co112      Cl156   2.450       .  S
N113        C151   1.340       .  A
N113        N120   1.319       .  A
N113       Co114   2.085   1_655  S
Co114       N117   2.086   1_455  S
Co114       N134   2.081       .  S
Co114       N121   2.087       .  S
Co114      Cl156   2.450       .  S
C115        N153   1.353       .  A
C115        C283   1.480       .  S
N116        N123   1.319       .  A
N116        N146   1.325       .  A
N116       Co149   2.081   1_655  S
N117        N135   1.318       .  A
N117        N153   1.325       .  A
N118        C147   1.351       .  A
N118        N128   1.325       .  A
H119        C144   1.080       .  S
N120        N141   1.323       .  A
N121        N139   1.319       .  A
N121        N126   1.324       .  A
C122        N126   1.351       .  A
C122        C150   1.461       .  S
C122        C247   1.483       .  S
N123        C138   1.336       .  A
N123       Co145   2.074   1_655  S
C124        N152   1.338       .  A
C124        C127   1.463       .  S
C124        H158   1.081       .  S
C127        N148   1.348       .  A
C127        C223   1.479       .  S
N128        N134   1.319       .  A
N129        C155   1.338       .  A
N129        N131   1.317       .  A
N129       Co145   2.073       .  S
N130        C144   1.339       .  A
N131        N159   1.322       .  A
N131       Co149   2.078       .  S
H132        C155   1.079       .  S
H133        C150   1.081       .  S
N135       Co149   2.070   1_655  S
N136        N148   1.323       .  A
N136        N152   1.318       .  A
N136       Co145   2.073       .  S
C137        N141   1.350       .  A
C137        C151   1.464       .  S
C137        C295   1.483       .  S
C138        C157   1.459       .  S
C138        H142   1.081       .  S
N139        C150   1.339       .  A
N139       Co149   2.078       .  S
C143        N159   1.351       .  A
C143        C155   1.463       .  S
C143        C208   1.481       .  S
Co145      Cl156   2.446       .  S
N146        C157   1.350       .  A
C147        C235   1.484       .  S
Co149      Cl156   2.448       .  S
C157        C268   1.476       .  S
C160        N161   1.355       .  A
C160        N165   1.357       .  A
C160        C280   1.484       .  S
N161        C162   1.354       .  A
C162        N163   1.358       .  A
C162        C340   1.485       .  S
N163        C164   1.361       .  A
C164        N165   1.360       .  A
C164        C400   1.484       .  S
C166        N167   1.358       .  A
C166        N171   1.354       .  A
C166        C292   1.489       .  S
N167        C168   1.360       .  A
C168        N169   1.360       .  A
C168        C379   1.485       .  S
N169        C170   1.359       .  A
C170        N171   1.355       .  A
C170        C412   1.476       .  S
C172        N173   1.355       .  A
C172        N177   1.354       .  A
C172        C463   1.485       .  S
N173        C174   1.359       .  A
C174        N175   1.360       .  A
C174        C271   1.484       .  S
N175        C176   1.359       .  A
C176        N177   1.356       .  A
C176        C307   1.485       .  S
C178        N179   1.361       .  A
C178        N183   1.354       .  A
C178        C391   1.486       .  S
N179        C180   1.363       .  A
C180        N181   1.360       .  A
C180        C232   1.489       .  S
N181        C182   1.356       .  A
C182        N183   1.354       .  A
C182        C424   1.484       .  S
C184        N185   1.349       .  A
C184        N189   1.357       .  A
C184        C352   1.481       .  S
N185        C186   1.351       .  A
C186        N187   1.363       .  A
C186        C220   1.488       .  S
N187        C188   1.366       .  A
C188        N189   1.362       .  A
C188        C487   1.495       .  S
C190        N191   1.354       .  A
C190        N195   1.360       .  A
C190        C472   1.488       .  S
N191        C192   1.354       .  A
C192        N193   1.357       .  A
C192        C211   1.487       .  S
N193        C194   1.360       .  A
C194        N195   1.361       .  A
C194        C319   1.486       .  S
C196        N197   1.357       .  A
C196        N201   1.360       .  A
C196        C451   1.485       .  S
N197        C198   1.355       .  A
C198        N199   1.354       .  A
C198        C259   1.479       .  S
N199        C200   1.355       .  A
C200        N201   1.359       .  A
C200        C367   1.485       .  S
C202        N203   1.360       .  A
C202        N207   1.358       .  A
C202        C328   1.486       .  S
N203        C204   1.359       .  A
C204        N205   1.358       .  A
C204        C244   1.489       .  S
N205        C206   1.356       .  A
C206        N207   1.357       .  A
C206        C439   1.489       .  S
C208        C209   1.405       .  A
C208        C213   1.410       .  A
C209        H214   1.084       .  S
C209        C210   1.399       .  A
C210        C211   1.412       .  A
C210        O215   1.371       .  S
C211        C212   1.407       .  A
C212        H216   1.083       .  S
C212        C213   1.396       .  A
C213        O217   1.370       .  S
O215        H219   0.992       .  S
O217        H218   0.993       .  S
C220        C221   1.405       .  A
C220        C225   1.418       .  A
C221        H226   1.083       .  S
C221        C222   1.402       .  A
C222        C223   1.412       .  A
C222        O227   1.371       .  S
C223        C224   1.399       .  A
C224        H228   1.082       .  S
C224        C225   1.393       .  A
C225        O229   1.372       .  S
O227        H231   0.992       .  S
O229        H230   0.993       .  S
C232        C233   1.407       .  A
C232        C237   1.413       .  A
C233        H238   1.083       .  S
C233        C234   1.402       .  A
C234        C235   1.411       .  A
C234        O239   1.372       .  S
C235        C236   1.403       .  A
C236        H240   1.082       .  S
C236        C237   1.398       .  A
C237        O241   1.372       .  S
O239        H243   0.991       .  S
O241        H242   0.991       .  S
C244        C245   1.408       .  A
C244        C249   1.413       .  A
C245        H250   1.083       .  S
C245        C246   1.398       .  A
C246        C247   1.409       .  A
C246        O251   1.372       .  S
C247        C248   1.405       .  A
C248        H252   1.082       .  S
C248        C249   1.400       .  A
C249        O253   1.371       .  S
O251        H255   0.991       .  S
O253        H254   0.991       .  S
C256        C257   1.404       .  A
C256        C261   1.408       .  A
C257        H262   1.084       .  S
C257        C258   1.397       .  A
C258        C259   1.410       .  A
C258        O263   1.371       .  S
C259        C260   1.405       .  A
C260        H264   1.083       .  S
C260        C261   1.395       .  A
C261        O265   1.370       .  S
O263        H267   0.992       .  S
O265        H266   0.992       .  S
C268        C269   1.401       .  A
C268        C273   1.409       .  A
C269        H274   1.082       .  S
C269        C270   1.393       .  A
C270        C271   1.413       .  A
C270        O275   1.371       .  S
C271        C272   1.408       .  A
C272        H276   1.083       .  S
C272        C273   1.401       .  A
C273        O277   1.372       .  S
O275        H279   0.993       .  S
O277        H278   0.992       .  S
C280        C281   1.405       .  A
C280        C285   1.412       .  A
C281        H286   1.083       .  S
C281        C282   1.394       .  A
C282        C283   1.410       .  A
C282        O287   1.371       .  S
C283        C284   1.405       .  A
C284        H288   1.084       .  S
C284        C285   1.401       .  A
C285        O289   1.371       .  S
O287        H291   0.992       .  S
O289        H290   0.992       .  S
C292        C293   1.406       .  A
C292        C297   1.415       .  A
C293        H298   1.083       .  S
C293        C294   1.399       .  A
C294        C295   1.411       .  A
C294        O299   1.371       .  S
C295        C296   1.403       .  A
C296        H300   1.082       .  S
C296        C297   1.398       .  A
C297        O301   1.372       .  S
O299        H303   0.992       .  S
O301        H302   0.992       .  S
C304        C305   1.405       .  A
C304        C309   1.409       .  A
C305        H310   1.083       .  S
C305        C306   1.400       .  A
C306        C307   1.412       .  A
C306        O311   1.371       .  S
C307        C308   1.406       .  A
C308        H312   1.083       .  S
C308        C309   1.396       .  A
C309        O313   1.371       .  S
O311        H315   0.992       .  S
O313        H314   0.993       .  S
C316        C317   1.403       .  A
C316        C321   1.410       .  A
C317        H322   1.081       .  S
C317        C318   1.397       .  A
C318        C319   1.413       .  A
C318        O323   1.371       .  S
C319        C320   1.407       .  A
C320        H324   1.083       .  S
C320        C321   1.401       .  A
C321        O325   1.371       .  S
O323        H327   0.992       .  S
O325        H326   0.992       .  S
C328        C329   1.405       .  A
C328        C333   1.414       .  A
C329        H334   1.083       .  S
C329        C330   1.398       .  A
C330        C331   1.411       .  A
C330        O335   1.372       .  S
C331        C332   1.402       .  A
C332        H336   1.082       .  S
C332        C333   1.399       .  A
C333        O337   1.372       .  S
O335        H339   0.992       .  S
O337        H338   0.993       .  S
C340        C341   1.407       .  A
C340        C345   1.410       .  A
C341        H346   1.083       .  S
C341        C342   1.398       .  A
C342        C343   1.409       .  A
C342        O347   1.370       .  S
C343        C344   1.406       .  A
C344        H348   1.083       .  S
C344        C345   1.401       .  A
C345        O349   1.371       .  S
O347        H351   0.991       .  S
O349        H350   0.992       .  S
C352        C353   1.407       .  A
C352        C357   1.408       .  A
C353        H358   1.083       .  S
C353        C354   1.396       .  A
C354        C355   1.409       .  A
C354        O359   1.371       .  S
C355        C356   1.404       .  A
C356        H360   1.083       .  S
C356        C357   1.397       .  A
C357        O361   1.370       .  S
O359        H363   0.992       .  S
O361        H362   0.992       .  S
C364        C365   1.402       .  A
C364        C369   1.413       .  A
C365        H370   1.083       .  S
C365        C366   1.396       .  A
C366        C367   1.414       .  A
C366        O371   1.372       .  S
C367        C368   1.405       .  A
C368        H372   1.083       .  S
C368        C369   1.399       .  A
C369        O373   1.370       .  S
O371        H375   0.992       .  S
O373        H374   0.992       .  S
C376        C377   1.405       .  A
C376        C381   1.409       .  A
C377        H382   1.084       .  S
C377        C378   1.402       .  A
C378        C379   1.413       .  A
C378        O383   1.372       .  S
C379        C380   1.406       .  A
C380        H384   1.083       .  S
C380        C381   1.397       .  A
C381        O385   1.371       .  S
O383        H387   0.992       .  S
O385        H386   0.993       .  S
C388        C389   1.401       .  A
C388        C393   1.412       .  A
C389        H394   1.082       .  S
C389        C390   1.395       .  A
C390        C391   1.415       .  A
C390        O395   1.372       .  S
C391        C392   1.406       .  A
C392        H396   1.083       .  S
C392        C393   1.401       .  A
C393        O397   1.371       .  S
O395        H399   0.992       .  S
O397        H398   0.992       .  S
C400        C401   1.407       .  A
C400        C405   1.411       .  A
C401        H406   1.083       .  S
C401        C402   1.400       .  A
C402        C403   1.410       .  A
C402        O407   1.372       .  S
C403        C404   1.402       .  A
C404        H408   1.081       .  S
C404        C405   1.398       .  A
C405        O409   1.372       .  S
O407        H411   0.992       .  S
O409        H410   0.992       .  S
C412        C413   1.404       .  A
C412        C417   1.411       .  A
C413        H418   1.083       .  S
C413        C414   1.399       .  A
C414        C415   1.409       .  A
C414        O419   1.372       .  S
C415        C416   1.401       .  A
C416        H420   1.083       .  S
C416        C417   1.395       .  A
C417        O421   1.372       .  S
O419        H423   0.992       .  S
O421        H422   0.993       .  S
C424        C425   1.405       .  A
C424        C429   1.411       .  A
C425        H430   1.083       .  S
C425        C426   1.395       .  A
C426        C427   1.412       .  A
C426        O431   1.370       .  S
C427        C428   1.405       .  A
C428        H432   1.083       .  S
C428        C429   1.400       .  A
C429        O433   1.370       .  S
O431        H435   0.994       .  S
O433        H434   0.993       .  S
C436        C437   1.403       .  A
C436        C441   1.411       .  A
C437        H442   1.082       .  S
C437        C438   1.398       .  A
C438        C439   1.414       .  A
C438        O443   1.371       .  S
C439        C440   1.407       .  A
C440        H444   1.083       .  S
C440        C441   1.399       .  A
C441        O445   1.371       .  S
O443        H447   0.992       .  S
O445        H446   0.992       .  S
C448        C449   1.401       .  A
C448        C453   1.410       .  A
C449        H454   1.082       .  S
C449        C450   1.395       .  A
C450        C451   1.414       .  A
C450        O455   1.371       .  S
C451        C452   1.407       .  A
C452        H456   1.083       .  S
C452        C453   1.398       .  A
C453        O457   1.372       .  S
O455        H459   0.992       .  S
O457        H458   0.992       .  S
C460        C461   1.405       .  A
C460        C465   1.408       .  A
C461        H466   1.084       .  S
C461        C462   1.400       .  A
C462        C463   1.413       .  A
C462        O467   1.371       .  S
C463        C464   1.406       .  A
C464        H468   1.083       .  S
C464        C465   1.396       .  A
C465        O469   1.370       .  S
O467        H471   0.992       .  S
O469        H470   0.992       .  S
C472        C473   1.407       .  A
C472        C477   1.415       .  A
C473        H478   1.083       .  S
C473        C474   1.401       .  A
C474        C475   1.411       .  A
C474        O479   1.371       .  S
C475        C476   1.402       .  A
C476        H480   1.081       .  S
C476        C477   1.395       .  A
C477        O481   1.372       .  S
O479        H483   0.992       .  S
O481        H482   0.992       .  S
C484        C485   1.402       .  A
C484        C489   1.410       .  A
C485        H490   1.082       .  S
C485        C486   1.399       .  A
C486        C487   1.415       .  A
C486        O491   1.371       .  S
C487        C488   1.409       .  A
C488        H492   1.083       .  S
C488        C489   1.405       .  A
C489        O493   1.372       .  S
O491        H495   0.992       .  S
O493        H494   0.991       .  S
