geometry optimzed in LAMMPS
_audit_creation_date              2020-12-01 
_audit_creation_method            'lammps2cif' 
_symmetry_space_group_name_H-M    'P1' 
_symmetry_Int_Tables_number       1 
_symmetry_cell_setting            triclinic 
loop_ 
_symmetry_equiv_pos_as_xyz 
  x,y,z 
_cell_length_a                    30.63639353 
_cell_length_b                    36.79980011000576 
_cell_length_c                    26.955412478333844 
_cell_angle_alpha                 89.99133965896034 
_cell_angle_beta                  89.99968326791097 
_cell_angle_gamma                 89.99996792664487 
loop_ 
_atom_site_label 
_atom_site_type_symbol 
_atom_site_fract_x 
_atom_site_fract_y 
_atom_site_fract_z 
_atom_site_charge 
O1          O  0.08875632  0.99633541  0.42691931    -0.71100
O2          O  0.08876011  0.00288274  0.07529295    -0.72100
O3          O  0.08877845  0.05489794  0.99609000    -0.60700
O4          O  0.08876899  0.94486290  0.00544575    -0.69100
O5          O  0.16123056  0.94486304  0.00544531    -0.68700
O6          O  0.16121747  0.05547188  0.49466768    -0.60000
O7          O  0.16123958  0.00288279  0.07529237    -0.72500
O8          O  0.16124356  0.99633544  0.42691895    -0.71200
Cu9        Cu  0.08624680  0.99983159  0.00082051     1.04600
Cu10       Cu  0.16374641  0.00044351  0.50118930     1.04300
C11         C  0.12499995  0.99575566  0.40348483     0.95100
C12         C  0.12499987  0.00336704  0.09875951     0.94200
C13         C  0.12499955  0.07266432  0.49198507     0.86300
C14         C  0.12499984  0.92766256  0.00715284     0.92600
O15         O  0.08875964  0.00276796  0.17672959    -0.71100
O16         O  0.08875710  0.99653942  0.32559021    -0.72100
O17         O  0.08877709  0.05475067  0.25584725    -0.60700
O18         O  0.08877166  0.94470320  0.24649978    -0.69100
O19         O  0.16122822  0.94470316  0.24649934    -0.68700
O20         O  0.16122278  0.05475064  0.25584655    -0.60000
O21         O  0.16124290  0.99653945  0.32558974    -0.72500
O22         O  0.16124022  0.00276793  0.17672905    -0.71200
Cu23       Cu  0.08624621  0.99969840  0.25117798     1.04600
Cu24       Cu  0.16375369  0.99969838  0.25117741     1.04300
C25         C  0.12499992  0.00330420  0.15326710     0.95100
C26         C  0.12500002  0.99588054  0.34902880     0.94200
C27         C  0.12499994  0.07197963  0.25765416     0.86300
C28         C  0.12499994  0.92750235  0.24460106     0.92600
C29         C  0.12499958  0.18329249  0.46645338     0.04900
C30         C  0.16466723  0.20214201  0.46196660    -0.11200
C31         C  0.16582047  0.23969772  0.45092013     0.02400
C32         C  0.12499959  0.25763307  0.44361628    -0.09700
C33         C  0.08417871  0.23969771  0.45092014     0.04900
C34         C  0.08533186  0.20214198  0.46196659    -0.09200
H35         H  0.19452023  0.18728231  0.46874114     0.10500
H36         H  0.12499962  0.28570919  0.43218507     0.08100
H37         H  0.05547893  0.18728231  0.46874110     0.07900
C38         C  0.12499996  0.18313923  0.27708907     0.04900
C39         C  0.08534298  0.20203248  0.28099091    -0.11200
C40         C  0.08418087  0.23968518  0.29134690     0.02400
C41         C  0.12499983  0.25765412  0.29841647    -0.09700
C42         C  0.16581888  0.23968518  0.29134698     0.04900
C43         C  0.16465689  0.20203243  0.28099120    -0.08800
H44         H  0.05552944  0.18704230  0.27457038     0.10500
H45         H  0.12499977  0.28575078  0.30968098     0.08100
H46         H  0.19447051  0.18704217  0.27457097     0.07900
C47         C  0.12500040  0.81668526  0.02637724     0.04900
C48         C  0.16465356  0.79784765  0.03039181    -0.11200
C49         C  0.16581872  0.76025719  0.04095915     0.02400
C50         C  0.12500045  0.74228601  0.04811069    -0.09700
C51         C  0.08418219  0.76025714  0.04095928     0.04900
C52         C  0.08534729  0.79784758  0.03039189    -0.09200
H53         H  0.19447626  0.81282943  0.02388913     0.10500
H54         H  0.12500045  0.71419432  0.05944261     0.08100
H55         H  0.05552460  0.81282928  0.02388919     0.07900
C56         C  0.12499981  0.81666251  0.22333781     0.04900
C57         C  0.16465698  0.79783284  0.21912519    -0.11200
C58         C  0.16581933  0.76026789  0.20835506     0.02400
C59         C  0.12499987  0.74231067  0.20114190    -0.09700
C60         C  0.08418034  0.76026793  0.20835493     0.04900
C61         C  0.08534262  0.79783290  0.21912508    -0.09200
H62         H  0.19449397  0.81277033  0.22573950     0.10500
H63         H  0.12499995  0.71422456  0.18977139     0.08100
H64         H  0.05550558  0.81277042  0.22573936     0.07900
C65         C  0.25000051  0.68293508  0.53427184     0.04900
C66         C  0.03966481  0.70190177  0.53819949    -0.11200
C67         C  0.04082231  0.73963721  0.54835892     0.02400
C68         C  0.25000040  0.75770080  0.04810701    -0.09700
C69         C  0.20917846  0.73963720  0.54835902     0.04900
C70         C  0.21033614  0.70190176  0.53819974    -0.09200
H71         H  0.06947413  0.68692725  0.53179050     0.10500
H72         H  0.25000036  0.78579371  0.05942169     0.08100
H73         H  0.18052686  0.68692722  0.53179072     0.07900
C74         C  0.24999981  0.68332099  0.22331366     0.04900
C75         C  0.21034266  0.70215232  0.21910710    -0.11200
C76         C  0.20918036  0.73972173  0.20835071     0.02400
C77         C  0.24999986  0.75768205  0.20114420    -0.09700
C78         C  0.04081932  0.73972177  0.20835063     0.04900
C79         C  0.03965693  0.70215236  0.21910702    -0.09200
H80         H  0.18050561  0.68721227  0.22571717     0.10500
H81         H  0.24999989  0.78577292  0.18978443     0.08100
H82         H  0.06949402  0.68721228  0.22571703     0.07900
C83         C  0.99999954  0.31670947  0.46645339     0.04900
C84         C  0.03966724  0.29786115  0.46196526    -0.11200
C85         C  0.04082046  0.26030776  0.45091941     0.02400
C86         C  0.99999961  0.24237393  0.44361615    -0.09700
C87         C  0.20917866  0.26030778  0.45091935     0.04900
C88         C  0.21033177  0.29786116  0.46196529    -0.09200
H89         H  0.06952012  0.31271917  0.46874025     0.10500
H90         H  0.99999968  0.21430005  0.43218604     0.08100
H91         H  0.18047881  0.31271918  0.46874035     0.07900
C92         C  0.25000000  0.31683241  0.27712117     0.04900
C93         C  0.03965684  0.29793713  0.28101373    -0.11200
C94         C  0.04081886  0.26027948  0.29135178     0.02400
C95         C  0.24999986  0.24230716  0.29841277    -0.09700
C96         C  0.20918090  0.26027950  0.29135187     0.04900
C97         C  0.21034304  0.29793719  0.28101396    -0.09200
H98         H  0.06947050  0.31293027  0.27459999     0.10500
H99         H  0.24999984  0.21420514  0.30966383     0.08100
H100        H  0.18052944  0.31293041  0.27460044     0.07900
O101        O  0.21378200  0.44452033  0.49469793    -0.71100
O102        O  0.21379013  0.55463578  0.50782046    -0.72100
O103        O  0.21375642  0.50366205  0.42694058    -0.60700
O104        O  0.21376041  0.49709832  0.07532110    -0.69100
O105        O  0.03623997  0.49709820  0.07532084    -0.68700
O106        O  0.03624370  0.50366179  0.42694024    -0.60000
O107        O  0.03621065  0.55463549  0.50782010    -0.72500
O108        O  0.03621773  0.44452007  0.49469761    -0.71200
Cu109      Cu  0.21125361  0.49954765  0.50121165     1.04600
Cu110      Cu  0.03874661  0.49954736  0.50121126     1.04300
C111        C  0.24999982  0.42732852  0.49201276     0.95100
C112        C  0.25000043  0.57185781  0.51054735     0.94200
C113        C  0.25000004  0.50423999  0.40350585     0.86300
C114        C  0.25000020  0.49661166  0.09878750     0.92600
O115        O  0.03622818  0.55527641  0.24649584    -0.71100
O116        O  0.03622294  0.44522882  0.25589638    -0.72100
O117        O  0.03624045  0.49720847  0.17675587    -0.60700
O118        O  0.03624290  0.50344551  0.32561184    -0.69100
O119        O  0.21375716  0.50344548  0.32561211    -0.68700
O120        O  0.21375984  0.49720848  0.17675610    -0.60000
O121        O  0.21377744  0.44522883  0.25589655    -0.72500
O122        O  0.21377166  0.55527634  0.24649621    -0.71200
Cu123      Cu  0.03875377  0.50028145  0.25120159     1.04600
Cu124      Cu  0.21124640  0.50028141  0.25120186     1.04300
C125        C  0.24999989  0.57247717  0.24458975     0.95100
C126        C  0.25000024  0.42799953  0.25770779     0.94200
C127        C  0.25000019  0.49667205  0.15329427     0.86300
C128        C  0.25000006  0.50410818  0.34905016     0.92600
C129        C  0.25000020  0.38869657  0.26262771    -0.11500
C130        C  0.25000010  0.35591462  0.26832420    -0.13000
C131        C  0.24999963  0.38816612  0.48483197    -0.11500
C132        C  0.99999952  0.35557835  0.47713737    -0.13000
C133        C  0.24999977  0.64438992  0.23290842    -0.11500
C134        C  0.24999976  0.61169980  0.23923989    -0.13000
C135        C  0.25000063  0.64382504  0.52467965    -0.11500
C136        C  0.25000063  0.61111509  0.51757840    -0.13000
C137        C  0.12499996  0.11128138  0.26257125    -0.11500
C138        C  0.12499998  0.14406118  0.26827569    -0.13000
C139        C  0.12499992  0.88827990  0.23926530    -0.11500
C140        C  0.12499984  0.85559077  0.23293773    -0.13000
C141        C  0.12499955  0.14442002  0.47712893    -0.11500
C142        C  0.12499949  0.11182922  0.48481326    -0.13000
C143        C  0.12500029  0.85567637  0.01745967    -0.11500
C144        C  0.12500007  0.88842054  0.01184119    -0.13000
O145        O  0.08875930  0.99657324  0.92638943    -0.71100
O146        O  0.08874861  0.00458835  0.57536410    -0.72100
O147        O  0.08878171  0.05547180  0.49466803    -0.60700
O148        O  0.08878995  0.94535474  0.50780949    -0.69100
O149        O  0.16121040  0.94535487  0.50780911    -0.68700
O150        O  0.16122079  0.05489790  0.99608930    -0.60000
O151        O  0.16125086  0.00458836  0.57536371    -0.72500
O152        O  0.16123963  0.99657323  0.92638889    -0.71200
Cu153      Cu  0.08625330  0.00044342  0.50118970     1.04600
Cu154      Cu  0.16375252  0.99983163  0.00081990     1.04300
C155        C  0.12499944  0.99573907  0.90294449     0.95100
C156        C  0.12499972  0.00512506  0.59875677     0.94200
C157        C  0.12499962  0.07212766  0.99418302     0.86300
C158        C  0.12500024  0.92813235  0.51053950     0.92600
O159        O  0.08874806  0.00363933  0.67646838    -0.71100
O160        O  0.08875904  0.99553089  0.82498858    -0.72100
O161        O  0.08877154  0.05435417  0.75652184    -0.60700
O162        O  0.08878898  0.94431733  0.74406304    -0.69100
O163        O  0.16120997  0.94431722  0.74406272    -0.68700
O164        O  0.16122752  0.05435404  0.75652145    -0.60000
O165        O  0.16123983  0.99553082  0.82498817    -0.72500
O166        O  0.16125125  0.00363908  0.67646800    -0.71200
Cu167      Cu  0.08624877  0.99941011  0.75061170     1.04600
Cu168      Cu  0.16375025  0.99940996  0.75061130     1.04300
C169        C  0.12499967  0.00459842  0.65310031     0.95100
C170        C  0.12499943  0.99515333  0.84845160     0.94200
C171        C  0.12499957  0.07156151  0.75835792     0.86300
C172        C  0.12499946  0.92712401  0.74102602     0.92600
C173        C  0.12499964  0.18318921  0.97336751     0.04900
C174        C  0.16466132  0.20207085  0.96929117    -0.11200
C175        C  0.16581889  0.23970219  0.95874233     0.02400
C176        C  0.12499959  0.25766278  0.95160950    -0.09700
C177        C  0.08418030  0.23970216  0.95874272     0.04900
C178        C  0.08533795  0.20207083  0.96929156    -0.09200
H179        H  0.19448298  0.18711870  0.97580981     0.10500
H180        H  0.12499958  0.28576326  0.94033027     0.08100
H181        H  0.05551622  0.18711864  0.97581047     0.07900
C182        C  0.12499966  0.18296145  0.77387125     0.04900
C183        C  0.08536016  0.20190383  0.77697907    -0.11200
C184        C  0.08418289  0.23969851  0.78631522     0.02400
C185        C  0.12499958  0.25771644  0.79298881    -0.09700
C186        C  0.16581628  0.23969854  0.78631491     0.04900
C187        C  0.16463917  0.20190384  0.77697874    -0.08800
H188        H  0.05561077  0.18674064  0.77099521     0.10500
H189        H  0.12499955  0.28587368  0.80392495     0.08100
H190        H  0.19438855  0.18674070  0.77099470     0.07900
C191        C  0.12500044  0.81705121  0.53427480     0.04900
C192        C  0.16466476  0.79808363  0.53820227    -0.11200
C193        C  0.16582230  0.76034568  0.54835970     0.02400
C194        C  0.12500034  0.74237742  0.55528627    -0.09700
C195        C  0.08417845  0.76034570  0.54835969     0.04900
C196        C  0.08533606  0.79808365  0.53820222    -0.09200
H197        H  0.19447408  0.81305970  0.53179375     0.10500
H198        H  0.12500027  0.71425914  0.56643019     0.08100
H199        H  0.05552682  0.81305969  0.53179364     0.07900
C200        C  0.12499960  0.81673516  0.71212330     0.04900
C201        C  0.16467398  0.79787525  0.70732277    -0.11200
C202        C  0.16582467  0.76033709  0.69601733     0.02400
C203        C  0.12499975  0.74242348  0.68866018    -0.09700
C204        C  0.08417474  0.76033710  0.69601732     0.04900
C205        C  0.08532528  0.79787525  0.70732277    -0.09200
H206        H  0.19455549  0.81266875  0.71423939     0.10500
H207        H  0.12499983  0.71435854  0.67717371     0.08100
H208        H  0.05544369  0.81266875  0.71423937     0.07900
C209        C  0.25000052  0.68329982  0.02641402     0.04900
C210        C  0.03965368  0.70213756  0.03042053    -0.11200
C211        C  0.04081873  0.73972892  0.04096641     0.02400
C212        C  0.25000033  0.75760375  0.55528661    -0.09700
C213        C  0.20918219  0.73972895  0.04096616     0.04900
C214        C  0.21034738  0.70213759  0.03042027    -0.09200
H215        H  0.06947636  0.68715572  0.02392441     0.10500
H216        H  0.25000025  0.78571919  0.56643219     0.08100
H217        H  0.18052477  0.68715575  0.02392418     0.07900
C218        C  0.24999972  0.68325534  0.71210671     0.04900
C219        C  0.21032537  0.70211676  0.70731032    -0.11200
C220        C  0.20917478  0.73965890  0.69601431     0.02400
C221        C  0.24999977  0.75757513  0.68866168    -0.09700
C222        C  0.04082463  0.73965891  0.69601430     0.04900
C223        C  0.03967399  0.70211679  0.70731032    -0.09200
H224        H  0.18044387  0.68732090  0.71422399     0.10500
H225        H  0.24999980  0.78564422  0.67718252     0.08100
H226        H  0.06955546  0.68732094  0.71422400     0.07900
C227        C  0.99999950  0.31680883  0.97341001     0.04900
C228        C  0.03966125  0.29792945  0.96932370    -0.11200
C229        C  0.04081889  0.26030411  0.95875043     0.02400
C230        C  0.99999963  0.24234775  0.95160544    -0.09700
C231        C  0.20918028  0.26030416  0.95874976     0.04900
C232        C  0.21033786  0.29792949  0.96932307    -0.09200
H233        H  0.06948279  0.31287823  0.97585070     0.10500
H234        H  0.99999970  0.21425375  0.94030696     0.08100
H235        H  0.18051621  0.31287833  0.97585006     0.07900
C236        C  0.24999961  0.31701940  0.77389615     0.04900
C237        C  0.03963909  0.29807565  0.77699670    -0.11200
C238        C  0.04081630  0.26027712  0.78631898     0.02400
C239        C  0.24999955  0.24225644  0.79298586    -0.09700
C240        C  0.20918288  0.26027712  0.78631853     0.04900
C241        C  0.21036009  0.29807568  0.77699615    -0.09200
H242        H  0.06938859  0.31324135  0.77101810     0.10500
H243        H  0.24999952  0.21409472  0.80391185     0.08100
H244        H  0.18061072  0.31324134  0.77101750     0.07900
O245        O  0.21377874  0.44509392  0.99612889    -0.71100
O246        O  0.21376962  0.55512722  0.00546846    -0.72100
O247        O  0.21376009  0.50342531  0.92641588    -0.60700
O248        O  0.21374906  0.49539521  0.57538790    -0.69100
O249        O  0.03625128  0.49539494  0.57538755    -0.68700
O250        O  0.03624021  0.50342509  0.92641559    -0.60000
O251        O  0.03623122  0.55512701  0.00546813    -0.72500
O252        O  0.03622100  0.44509363  0.99612861    -0.71200
Cu253      Cu  0.21124737  0.50015912  0.00084901     1.04600
Cu254      Cu  0.03875297  0.50015888  0.00084867     1.04300
C255        C  0.24999985  0.42786437  0.99422624     0.95100
C256        C  0.25000044  0.57232706  0.00717850     0.94200
C257        C  0.25000014  0.50425827  0.90297005     0.86300
C258        C  0.25000014  0.49485770  0.59878105     0.92600
O259        O  0.03621053  0.55566863  0.74406250    -0.71100
O260        O  0.03622808  0.44563224  0.75656803    -0.72100
O261        O  0.03625172  0.49634505  0.67649292    -0.60700
O262        O  0.03624043  0.50445846  0.82501210    -0.69100
O263        O  0.21375982  0.50445840  0.82501234    -0.68700
O264        O  0.21374863  0.49634521  0.67649320    -0.60000
O265        O  0.21377204  0.44563231  0.75656808    -0.72500
O266        O  0.21378959  0.55566856  0.74406290    -0.71200
Cu267      Cu  0.03875081  0.50057629  0.75063539     1.04600
Cu268      Cu  0.21124943  0.50057631  0.75063567     1.04300
C269        C  0.25000008  0.57286179  0.74101955     0.95100
C270        C  0.25000001  0.42842466  0.75840697     0.94200
C271        C  0.25000015  0.49538495  0.65312516     0.86300
C272        C  0.25000013  0.50483886  0.84847563     0.92600
C273        C  0.24999994  0.38913141  0.76273987    -0.11500
C274        C  0.24999971  0.35626390  0.76703935    -0.13000
C275        C  0.24999964  0.38857535  0.98893768    -0.11500
C276        C  0.99999943  0.35583407  0.98275850    -0.13000
C277        C  0.24999976  0.64446903  0.72387399    -0.11500
C278        C  0.24999995  0.61198700  0.73272270    -0.13000
C279        C  0.25000056  0.64430999  0.01750098    -0.11500
C280        C  0.25000057  0.61156757  0.01187623    -0.13000
C281        C  0.12499965  0.11085387  0.76269078    -0.11500
C282        C  0.12499970  0.14371984  0.76699921    -0.13000
C283        C  0.12499946  0.88799914  0.73274004    -0.11500
C284        C  0.12499952  0.85551851  0.72389414    -0.13000
C285        C  0.12499970  0.14416030  0.98270539    -0.11500
C286        C  0.12499966  0.11141757  0.98888599    -0.13000
C287        C  0.12500048  0.85616315  0.52468141    -0.11500
C288        C  0.12500038  0.88887423  0.51757687    -0.13000
O289        O  0.33875624  0.99633516  0.42691914    -0.71100
O290        O  0.33876010  0.00288289  0.07529275    -0.72100
O291        O  0.33877838  0.05489792  0.99608963    -0.60700
O292        O  0.33876896  0.94486291  0.00544565    -0.69100
O293        O  0.41123051  0.94486306  0.00544502    -0.68700
O294        O  0.41121748  0.05547179  0.49466731    -0.60000
O295        O  0.41123955  0.00288291  0.07529217    -0.72500
O296        O  0.41124346  0.99633542  0.42691871    -0.71200
Cu297      Cu  0.33624679  0.99983162  0.00082033     1.04600
Cu298      Cu  0.41374631  0.00044345  0.50118903     1.04300
C299        C  0.37499989  0.99575557  0.40348463     0.95100
C300        C  0.37499987  0.00336717  0.09875932     0.94200
C301        C  0.37499958  0.07266424  0.49198468     0.86300
C302        C  0.37499981  0.92766256  0.00715259     0.92600
O303        O  0.33875965  0.00276802  0.17672936    -0.71100
O304        O  0.33875696  0.99653949  0.32559005    -0.72100
O305        O  0.33877704  0.05475074  0.25584690    -0.60700
O306        O  0.33877169  0.94470328  0.24649947    -0.69100
O307        O  0.41122823  0.94470320  0.24649908    -0.68700
O308        O  0.41122272  0.05475064  0.25584650    -0.60000
O309        O  0.41124276  0.99653943  0.32558959    -0.72500
O310        O  0.41124019  0.00276795  0.17672891    -0.71200
Cu311      Cu  0.33624618  0.99969846  0.25117772     1.04600
Cu312      Cu  0.41375359  0.99969839  0.25117727     1.04300
C313        C  0.37499991  0.00330424  0.15326691     0.95100
C314        C  0.37499983  0.99588054  0.34902863     0.94200
C315        C  0.37499991  0.07197966  0.25765397     0.86300
C316        C  0.37499995  0.92750241  0.24460078     0.92600
C317        C  0.37499955  0.18329250  0.46645338     0.04900
C318        C  0.41466726  0.20214200  0.46196660    -0.11200
C319        C  0.41582047  0.23969774  0.45092016     0.02400
C320        C  0.37499960  0.25763308  0.44361634    -0.09700
C321        C  0.33417869  0.23969772  0.45092013     0.04900
C322        C  0.33533185  0.20214198  0.46196655    -0.09200
H323        H  0.44452016  0.18728234  0.46874111     0.10500
H324        H  0.37499963  0.28570923  0.43218519     0.08100
H325        H  0.30547888  0.18728230  0.46874099     0.07900
C326        C  0.37499995  0.18313922  0.27708907     0.04900
C327        C  0.33534301  0.20203248  0.28099096    -0.11200
C328        C  0.33418087  0.23968516  0.29134692     0.02400
C329        C  0.37499984  0.25765410  0.29841648    -0.09700
C330        C  0.41581888  0.23968516  0.29134699     0.04900
C331        C  0.41465689  0.20203243  0.28099119    -0.08800
H332        H  0.30552939  0.18704224  0.27457049     0.10500
H333        H  0.37499979  0.28575074  0.30968104     0.08100
H334        H  0.44447051  0.18704216  0.27457097     0.07900
C335        C  0.37500037  0.81668527  0.02637695     0.04900
C336        C  0.41465350  0.79784763  0.03039145    -0.11200
C337        C  0.41581868  0.76025718  0.04095876     0.02400
C338        C  0.37500041  0.74228600  0.04811031    -0.09700
C339        C  0.33418213  0.76025715  0.04095890     0.04900
C340        C  0.33534727  0.79784758  0.03039153    -0.09200
H341        H  0.44447625  0.81282945  0.02388877     0.10500
H342        H  0.37500041  0.71419432  0.05944222     0.08100
H343        H  0.30552453  0.81282932  0.02388884     0.07900
C344        C  0.37499970  0.81666254  0.22333775     0.04900
C345        C  0.41465693  0.79783288  0.21912518    -0.11200
C346        C  0.41581931  0.76026790  0.20835508     0.02400
C347        C  0.37499989  0.74231067  0.20114194    -0.09700
C348        C  0.33418032  0.76026792  0.20835494     0.04900
C349        C  0.33534258  0.79783288  0.21912506    -0.09200
H350        H  0.44449388  0.81277037  0.22573946     0.10500
H351        H  0.37499998  0.71422454  0.18977145     0.08100
H352        H  0.30550545  0.81277041  0.22573936     0.07900
C353        C  0.50000048  0.68293508  0.53427184     0.04900
C354        C  0.28966482  0.70190178  0.53819974    -0.11200
C355        C  0.29082230  0.73963722  0.54835903     0.02400
C356        C  0.50000037  0.75770082  0.04810671    -0.09700
C357        C  0.45917849  0.73963721  0.54835911     0.04900
C358        C  0.46033614  0.70190180  0.53819973    -0.09200
H359        H  0.31947413  0.68692727  0.53179076     0.10500
H360        H  0.50000027  0.78579374  0.05942131     0.08100
H361        H  0.43052687  0.68692729  0.53179067     0.07900
C362        C  0.49999982  0.68332095  0.22331366     0.04900
C363        C  0.46034267  0.70215230  0.21910711    -0.11200
C364        C  0.45918036  0.73972174  0.20835073     0.02400
C365        C  0.49999987  0.75768205  0.20114422    -0.09700
C366        C  0.29081934  0.73972174  0.20835063     0.04900
C367        C  0.28965695  0.70215233  0.21910703    -0.09200
H368        H  0.43050561  0.68721225  0.22571719     0.10500
H369        H  0.49999990  0.78577293  0.18978448     0.08100
H370        H  0.31949402  0.68721224  0.22571705     0.07900
C371        C  0.24999944  0.31670946  0.46645333     0.04900
C372        C  0.28966720  0.29786114  0.46196529    -0.11200
C373        C  0.29082043  0.26030775  0.45091934     0.02400
C374        C  0.24999960  0.24237395  0.44361597    -0.09700
C375        C  0.45917870  0.26030777  0.45091950     0.04900
C376        C  0.46033182  0.29786114  0.46196547    -0.09200
H377        H  0.31951999  0.31271914  0.46874034     0.10500
H378        H  0.24999964  0.21430006  0.43218572     0.08100
H379        H  0.43047886  0.31271916  0.46874063     0.07900
C380        C  0.49999994  0.31683241  0.27712103     0.04900
C381        C  0.28965690  0.29793714  0.28101392    -0.11200
C382        C  0.29081887  0.26027948  0.29135187     0.02400
C383        C  0.49999985  0.24230717  0.29841277    -0.09700
C384        C  0.45918088  0.26027951  0.29135188     0.04900
C385        C  0.46034301  0.29793719  0.28101396    -0.09200
H386        H  0.31947056  0.31293027  0.27460031     0.10500
H387        H  0.49999985  0.21420517  0.30966386     0.08100
H388        H  0.43052934  0.31293042  0.27460044     0.07900
O389        O  0.46378198  0.44452031  0.49469795    -0.71100
O390        O  0.46379007  0.55463575  0.50782048    -0.72100
O391        O  0.46375636  0.50366205  0.42694055    -0.60700
O392        O  0.46376043  0.49709832  0.07532103    -0.69100
O393        O  0.28623999  0.49709820  0.07532065    -0.68700
O394        O  0.28624369  0.50366179  0.42694009    -0.60000
O395        O  0.28621054  0.55463549  0.50781999    -0.72500
O396        O  0.28621777  0.44452007  0.49469747    -0.71200
Cu397      Cu  0.46125358  0.49954764  0.50121163     1.04600
Cu398      Cu  0.28874658  0.49954736  0.50121114     1.04300
C399        C  0.49999980  0.42732852  0.49201268     0.95100
C400        C  0.50000033  0.57185781  0.51054727     0.94200
C401        C  0.49999997  0.50423999  0.40350575     0.86300
C402        C  0.50000019  0.49661159  0.09878746     0.92600
O403        O  0.28622821  0.55527644  0.24649586    -0.71100
O404        O  0.28622303  0.44522881  0.25589618    -0.72100
O405        O  0.28624052  0.49720850  0.17675570    -0.60700
O406        O  0.28624297  0.50344549  0.32561171    -0.69100
O407        O  0.46375698  0.50344548  0.32561206    -0.68700
O408        O  0.46375972  0.49720848  0.17675604    -0.60000
O409        O  0.46377729  0.44522879  0.25589648    -0.72500
O410        O  0.46377150  0.55527632  0.24649614    -0.71200
Cu411      Cu  0.28875384  0.50028146  0.25120145     1.04600
Cu412      Cu  0.46124619  0.50028140  0.25120181     1.04300
C413        C  0.49999977  0.57247711  0.24458965     0.95100
C414        C  0.50000012  0.42799953  0.25770769     0.94200
C415        C  0.50000012  0.49667204  0.15329425     0.86300
C416        C  0.49999990  0.50410818  0.34905008     0.92600
C417        C  0.50000016  0.38869657  0.26262753    -0.11500
C418        C  0.50000006  0.35591461  0.26832399    -0.13000
C419        C  0.49999964  0.38816612  0.48483196    -0.11500
C420        C  0.24999947  0.35557834  0.47713726    -0.13000
C421        C  0.49999980  0.64438986  0.23290839    -0.11500
C422        C  0.49999974  0.61169973  0.23923979    -0.13000
C423        C  0.50000050  0.64382504  0.52467965    -0.11500
C424        C  0.50000047  0.61111509  0.51757839    -0.13000
C425        C  0.37499996  0.11128140  0.26257117    -0.11500
C426        C  0.37499999  0.14406118  0.26827569    -0.13000
C427        C  0.37499989  0.88827994  0.23926508    -0.11500
C428        C  0.37499971  0.85559082  0.23293754    -0.13000
C429        C  0.37499957  0.14442000  0.47712884    -0.11500
C430        C  0.37499957  0.11182916  0.48481298    -0.13000
C431        C  0.37500029  0.85567638  0.01745949    -0.11500
C432        C  0.37500006  0.88842054  0.01184092    -0.13000
O433        O  0.33875925  0.99657321  0.92638929    -0.71100
O434        O  0.33874860  0.00458830  0.57536377    -0.72100
O435        O  0.33878174  0.05547170  0.49466763    -0.60700
O436        O  0.33878984  0.94535457  0.50780933    -0.69100
O437        O  0.41121029  0.94535476  0.50780893    -0.68700
O438        O  0.41122070  0.05489795  0.99608900    -0.60000
O439        O  0.41125083  0.00458837  0.57536344    -0.72500
O440        O  0.41123957  0.99657323  0.92638869    -0.71200
Cu441      Cu  0.33625329  0.00044328  0.50118943     1.04600
Cu442      Cu  0.41375244  0.99983168  0.00081965     1.04300
C443        C  0.37499937  0.99573906  0.90294433     0.95100
C444        C  0.37499967  0.00512505  0.59875647     0.94200
C445        C  0.37499952  0.07212768  0.99418265     0.86300
C446        C  0.37500015  0.92813221  0.51053937     0.92600
O447        O  0.33874798  0.00363933  0.67646811    -0.71100
O448        O  0.33875892  0.99553090  0.82498845    -0.72100
O449        O  0.33877152  0.05435419  0.75652158    -0.60700
O450        O  0.33878883  0.94431735  0.74406279    -0.69100
O451        O  0.41120982  0.94431721  0.74406236    -0.68700
O452        O  0.41122749  0.05435403  0.75652110    -0.60000
O453        O  0.41123970  0.99553082  0.82498797    -0.72500
O454        O  0.41125116  0.00363908  0.67646771    -0.71200
Cu455      Cu  0.33624868  0.99941012  0.75061148     1.04600
Cu456      Cu  0.41375019  0.99940995  0.75061102     1.04300
C457        C  0.37499961  0.00459842  0.65310002     0.95100
C458        C  0.37499931  0.99515333  0.84845144     0.94200
C459        C  0.37499955  0.07156152  0.75835756     0.86300
C460        C  0.37499929  0.92712403  0.74102567     0.92600
C461        C  0.37499957  0.18318920  0.97336683     0.04900
C462        C  0.41466125  0.20207082  0.96929048    -0.11200
C463        C  0.41581889  0.23970215  0.95874166     0.02400
C464        C  0.37499961  0.25766277  0.95160874    -0.09700
C465        C  0.33418032  0.23970217  0.95874194     0.04900
C466        C  0.33533788  0.20207084  0.96929081    -0.09200
H467        H  0.44448297  0.18711865  0.97580923     0.10500
H468        H  0.37499964  0.28576324  0.94032951     0.08100
H469        H  0.30551621  0.18711872  0.97580975     0.07900
C470        C  0.37499969  0.18296145  0.77387098     0.04900
C471        C  0.33536018  0.20190384  0.77697858    -0.11200
C472        C  0.33418289  0.23969852  0.78631476     0.02400
C473        C  0.37499954  0.25771644  0.79298851    -0.09700
C474        C  0.41581628  0.23969854  0.78631476     0.04900
C475        C  0.41463919  0.20190385  0.77697853    -0.08800
H476        H  0.30561079  0.18674069  0.77099450     0.10500
H477        H  0.37499944  0.28587369  0.80392461     0.08100
H478        H  0.44438858  0.18674075  0.77099441     0.07900
C479        C  0.37500043  0.81705118  0.53427498     0.04900
C480        C  0.41466478  0.79808361  0.53820234    -0.11200
C481        C  0.41582232  0.76034568  0.54835980     0.02400
C482        C  0.37500036  0.74237744  0.55528648    -0.09700
C483        C  0.33417845  0.76034569  0.54835977     0.04900
C484        C  0.33533610  0.79808361  0.53820229    -0.09200
H485        H  0.44447407  0.81305966  0.53179371     0.10500
H486        H  0.37500031  0.71425919  0.56643057     0.08100
H487        H  0.30552679  0.81305967  0.53179358     0.07900
C488        C  0.37499957  0.81673516  0.71212332     0.04900
C489        C  0.41467397  0.79787525  0.70732286    -0.11200
C490        C  0.41582468  0.76033709  0.69601747     0.02400
C491        C  0.37499979  0.74242348  0.68866025    -0.09700
C492        C  0.33417478  0.76033709  0.69601733     0.04900
C493        C  0.33532529  0.79787523  0.70732273    -0.09200
H494        H  0.44455546  0.81266881  0.71423941     0.10500
H495        H  0.37499986  0.71435854  0.67717371     0.08100
H496        H  0.30544368  0.81266875  0.71423927     0.07900
C497        C  0.50000055  0.68329983  0.02641378     0.04900
C498        C  0.28965361  0.70213756  0.03042016    -0.11200
C499        C  0.29081869  0.73972891  0.04096604     0.02400
C500        C  0.50000038  0.75760372  0.55528679    -0.09700
C501        C  0.45918216  0.73972895  0.04096578     0.04900
C502        C  0.46034739  0.70213760  0.03041990    -0.09200
H503        H  0.31947630  0.68715569  0.02392405     0.10500
H504        H  0.50000028  0.78571915  0.56643251     0.08100
H505        H  0.43052479  0.68715574  0.02392379     0.07900
C506        C  0.49999974  0.68325535  0.71210677     0.04900
C507        C  0.46032537  0.70211674  0.70731035    -0.11200
C508        C  0.45917476  0.73965888  0.69601437     0.02400
C509        C  0.49999972  0.75757513  0.68866168    -0.09700
C510        C  0.29082472  0.73965890  0.69601430     0.04900
C511        C  0.28967408  0.70211677  0.70731032    -0.09200
H512        H  0.43044388  0.68732087  0.71422405     0.10500
H513        H  0.49999973  0.78564421  0.67718251     0.08100
H514        H  0.31955554  0.68732091  0.71422399     0.07900
C515        C  0.24999956  0.31680882  0.97340956     0.04900
C516        C  0.28966130  0.29792944  0.96932301    -0.11200
C517        C  0.29081890  0.26030412  0.95874967     0.02400
C518        C  0.24999963  0.24234778  0.95160473    -0.09700
C519        C  0.45918027  0.26030417  0.95874930     0.04900
C520        C  0.46033773  0.29792949  0.96932264    -0.09200
H521        H  0.31948285  0.31287821  0.97584992     0.10500
H522        H  0.24999970  0.21425378  0.94030622     0.08100
H523        H  0.43051610  0.31287830  0.97584951     0.07900
C524        C  0.49999964  0.31701941  0.77389615     0.04900
C525        C  0.28963909  0.29807566  0.77699615    -0.11200
C526        C  0.29081628  0.26027712  0.78631852     0.02400
C527        C  0.49999956  0.24225645  0.79298586    -0.09700
C528        C  0.45918288  0.26027714  0.78631851     0.04900
C529        C  0.46036013  0.29807568  0.77699615    -0.09200
H530        H  0.31938850  0.31324133  0.77101747     0.10500
H531        H  0.49999948  0.21409472  0.80391184     0.08100
H532        H  0.43061071  0.31324135  0.77101749     0.07900
O533        O  0.46377855  0.44509390  0.99612868    -0.71100
O534        O  0.46376962  0.55512721  0.00546845    -0.72100
O535        O  0.46375997  0.50342533  0.92641576    -0.60700
O536        O  0.46374904  0.49539520  0.57538783    -0.69100
O537        O  0.28625119  0.49539494  0.57538740    -0.68700
O538        O  0.28624022  0.50342506  0.92641539    -0.60000
O539        O  0.28623114  0.55512699  0.00546805    -0.72500
O540        O  0.28622114  0.44509364  0.99612830    -0.71200
Cu541      Cu  0.46124732  0.50015912  0.00084890     1.04600
Cu542      Cu  0.28875299  0.50015888  0.00084848     1.04300
C543        C  0.49999966  0.42786434  0.99422613     0.95100
C544        C  0.50000045  0.57232702  0.00717850     0.94200
C545        C  0.50000007  0.50425826  0.90296997     0.86300
C546        C  0.50000011  0.49485770  0.59878096     0.92600
O547        O  0.28621062  0.55566860  0.74406241    -0.71100
O548        O  0.28622801  0.44563226  0.75656760    -0.72100
O549        O  0.28625171  0.49634521  0.67649268    -0.60700
O550        O  0.28624041  0.50445840  0.82501183    -0.69100
O551        O  0.46375985  0.50445841  0.82501224    -0.68700
O552        O  0.46374858  0.49634521  0.67649311    -0.60000
O553        O  0.46377209  0.44563231  0.75656806    -0.72500
O554        O  0.46378957  0.55566858  0.74406287    -0.71200
Cu555      Cu  0.28875081  0.50057631  0.75063514     1.04600
Cu556      Cu  0.46124943  0.50057632  0.75063560     1.04300
C557        C  0.50000004  0.57286182  0.74101955     0.95100
C558        C  0.50000007  0.42842466  0.75840696     0.94200
C559        C  0.50000011  0.49538496  0.65312507     0.86300
C560        C  0.50000012  0.50483887  0.84847557     0.92600
C561        C  0.49999999  0.38913141  0.76273987    -0.11500
C562        C  0.49999977  0.35626389  0.76703935    -0.13000
C563        C  0.49999946  0.38857534  0.98893758    -0.11500
C564        C  0.24999956  0.35583406  0.98275813    -0.13000
C565        C  0.49999979  0.64446907  0.72387417    -0.11500
C566        C  0.49999992  0.61198703  0.73272280    -0.13000
C567        C  0.50000061  0.64430998  0.01750091    -0.11500
C568        C  0.50000059  0.61156755  0.01187624    -0.13000
C569        C  0.37499967  0.11085387  0.76269040    -0.11500
C570        C  0.37499975  0.14371983  0.76699890    -0.13000
C571        C  0.37499925  0.88799915  0.73273975    -0.11500
C572        C  0.37499938  0.85551851  0.72389403    -0.13000
C573        C  0.37499949  0.14416031  0.98270494    -0.11500
C574        C  0.37499946  0.11141759  0.98888561    -0.13000
C575        C  0.37500045  0.85616306  0.52468149    -0.11500
C576        C  0.37500035  0.88887412  0.51757679    -0.13000
O577        O  0.58875620  0.99633540  0.42691915    -0.71100
O578        O  0.58876011  0.00288274  0.07529293    -0.72100
O579        O  0.58877834  0.05489791  0.99608980    -0.60700
O580        O  0.58876902  0.94486290  0.00544572    -0.69100
O581        O  0.66123056  0.94486306  0.00544503    -0.68700
O582        O  0.66121754  0.05547180  0.49466740    -0.60000
O583        O  0.66123957  0.00288290  0.07529231    -0.72500
O584        O  0.66124341  0.99633540  0.42691873    -0.71200
Cu585      Cu  0.58624680  0.99983158  0.00082047     1.04600
Cu586      Cu  0.66374633  0.00044346  0.50118910     1.04300
C587        C  0.62499980  0.99575564  0.40348465     0.95100
C588        C  0.62499988  0.00336710  0.09875948     0.94200
C589        C  0.62499966  0.07266427  0.49198486     0.86300
C590        C  0.62499987  0.92766255  0.00715260     0.92600
O591        O  0.58875965  0.00276800  0.17672949    -0.71100
O592        O  0.58875692  0.99653951  0.32559006    -0.72100
O593        O  0.58877703  0.05475075  0.25584689    -0.60700
O594        O  0.58877154  0.94470326  0.24649964    -0.69100
O595        O  0.66122809  0.94470315  0.24649927    -0.68700
O596        O  0.66122269  0.05475063  0.25584652    -0.60000
O597        O  0.66124272  0.99653944  0.32558965    -0.72500
O598        O  0.66124020  0.00276793  0.17672905    -0.71200
Cu599      Cu  0.58624614  0.99969846  0.25117780     1.04600
Cu600      Cu  0.66375357  0.99969837  0.25117738     1.04300
C601        C  0.62499993  0.00330422  0.15326705     0.95100
C602        C  0.62499982  0.99588056  0.34902866     0.94200
C603        C  0.62499989  0.07197966  0.25765396     0.86300
C604        C  0.62499979  0.92750237  0.24460096     0.92600
C605        C  0.62499962  0.18329250  0.46645362     0.04900
C606        C  0.66466731  0.20214203  0.46196697    -0.11200
C607        C  0.66582052  0.23969774  0.45092046     0.02400
C608        C  0.62499965  0.25763310  0.44361665    -0.09700
C609        C  0.58417874  0.23969772  0.45092037     0.04900
C610        C  0.58533190  0.20214197  0.46196673    -0.09200
H611        H  0.69452024  0.18728235  0.46874150     0.10500
H612        H  0.62499969  0.28570921  0.43218543     0.08100
H613        H  0.55547895  0.18728225  0.46874100     0.07900
C614        C  0.62499997  0.18313922  0.27708900     0.04900
C615        C  0.58534302  0.20203246  0.28099096    -0.11200
C616        C  0.58418087  0.23968516  0.29134690     0.02400
C617        C  0.62499983  0.25765409  0.29841648    -0.09700
C618        C  0.66581888  0.23968517  0.29134692     0.04900
C619        C  0.66465690  0.20203246  0.28099096    -0.08800
H620        H  0.55552941  0.18704223  0.27457054     0.10500
H621        H  0.62499972  0.28575074  0.30968105     0.08100
H622        H  0.69447053  0.18704225  0.27457056     0.07900
C623        C  0.62500042  0.81668526  0.02637695     0.04900
C624        C  0.66465354  0.79784762  0.03039157    -0.11200
C625        C  0.66581872  0.76025719  0.04095891     0.02400
C626        C  0.62500042  0.74228600  0.04811038    -0.09700
C627        C  0.58418216  0.76025715  0.04095890     0.04900
C628        C  0.58534731  0.79784757  0.03039149    -0.09200
H629        H  0.69447632  0.81282945  0.02388891     0.10500
H630        H  0.62500042  0.71419431  0.05944224     0.08100
H631        H  0.55552459  0.81282931  0.02388871     0.07900
C632        C  0.62499974  0.81666253  0.22333758     0.04900
C633        C  0.66465697  0.79783287  0.21912512    -0.11200
C634        C  0.66581934  0.76026790  0.20835507     0.02400
C635        C  0.62499992  0.74231065  0.20114191    -0.09700
C636        C  0.58418036  0.76026790  0.20835493     0.04900
C637        C  0.58534262  0.79783286  0.21912499    -0.09200
H638        H  0.69449391  0.81277036  0.22573949     0.10500
H639        H  0.62500001  0.71422454  0.18977141     0.08100
H640        H  0.55550551  0.81277038  0.22573937     0.07900
C641        C  0.75000045  0.68293509  0.53427154     0.04900
C642        C  0.53966482  0.70190175  0.53819973    -0.11200
C643        C  0.54082233  0.73963719  0.54835911     0.02400
C644        C  0.75000041  0.75770082  0.04810702    -0.09700
C645        C  0.70917846  0.73963722  0.54835894     0.04900
C646        C  0.71033609  0.70190180  0.53819949    -0.09200
H647        H  0.56947412  0.68692724  0.53179070     0.10500
H648        H  0.75000029  0.78579372  0.05942169     0.08100
H649        H  0.68052684  0.68692729  0.53179048     0.07900
C650        C  0.74999980  0.68332099  0.22331358     0.04900
C651        C  0.71034268  0.70215235  0.21910710    -0.11200
C652        C  0.70918038  0.73972176  0.20835071     0.02400
C653        C  0.74999988  0.75768207  0.20114414    -0.09700
C654        C  0.54081934  0.73972172  0.20835064     0.04900
C655        C  0.53965698  0.70215229  0.21910704    -0.09200
H656        H  0.68050562  0.68721232  0.22571724     0.10500
H657        H  0.74999990  0.78577296  0.18978448     0.08100
H658        H  0.56949400  0.68721225  0.22571702     0.07900
C659        C  0.49999949  0.31670946  0.46645339     0.04900
C660        C  0.53966725  0.29786116  0.46196528    -0.11200
C661        C  0.54082047  0.26030775  0.45091949     0.02400
C662        C  0.49999964  0.24237392  0.44361620    -0.09700
C663        C  0.70917873  0.26030778  0.45091959     0.04900
C664        C  0.71033187  0.29786116  0.46196550    -0.09200
H665        H  0.56952004  0.31271918  0.46874027     0.10500
H666        H  0.49999969  0.21430002  0.43218610     0.08100
H667        H  0.68047893  0.31271916  0.46874071     0.07900
C668        C  0.74999990  0.31683242  0.27712102     0.04900
C669        C  0.53965684  0.29793713  0.28101372    -0.11200
C670        C  0.54081885  0.26027948  0.29135180     0.02400
C671        C  0.74999987  0.24230717  0.29841268    -0.09700
C672        C  0.70918088  0.26027950  0.29135187     0.04900
C673        C  0.71034298  0.29793718  0.28101397    -0.09200
H674        H  0.56947050  0.31293025  0.27459998     0.10500
H675        H  0.74999986  0.21420516  0.30966380     0.08100
H676        H  0.68052930  0.31293037  0.27460045     0.07900
O677        O  0.71378201  0.44452034  0.49469824    -0.71100
O678        O  0.71379006  0.55463575  0.50782045    -0.72100
O679        O  0.71375640  0.50366202  0.42694070    -0.60700
O680        O  0.71376027  0.49709844  0.07532126    -0.69100
O681        O  0.53624001  0.49709799  0.07532061    -0.68700
O682        O  0.53624366  0.50366179  0.42693992    -0.60000
O683        O  0.53621047  0.55463553  0.50781978    -0.72500
O684        O  0.53621774  0.44452010  0.49469726    -0.71200
Cu685      Cu  0.71125361  0.49954764  0.50121179     1.04600
Cu686      Cu  0.53874657  0.49954738  0.50121096     1.04300
C687        C  0.74999979  0.42732851  0.49201304     0.95100
C688        C  0.75000032  0.57185781  0.51054737     0.94200
C689        C  0.75000004  0.50423999  0.40350597     0.86300
C690        C  0.75000008  0.49661172  0.09878766     0.92600
O691        O  0.53622809  0.55527636  0.24649579    -0.71100
O692        O  0.53622290  0.44522884  0.25589611    -0.72100
O693        O  0.53624041  0.49720850  0.17675571    -0.60700
O694        O  0.53624282  0.50344549  0.32561161    -0.69100
O695        O  0.71375707  0.50344547  0.32561228    -0.68700
O696        O  0.71375973  0.49720849  0.17675626    -0.60000
O697        O  0.71377734  0.44522880  0.25589673    -0.72500
O698        O  0.71377152  0.55527634  0.24649644    -0.71200
Cu699      Cu  0.53875373  0.50028145  0.25120141     1.04600
Cu700      Cu  0.71124625  0.50028140  0.25120205     1.04300
C701        C  0.74999975  0.57247717  0.24458982     0.95100
C702        C  0.75000016  0.42799954  0.25770795     0.94200
C703        C  0.75000008  0.49667206  0.15329441     0.86300
C704        C  0.74999998  0.50410818  0.34905028     0.92600
C705        C  0.75000016  0.38869657  0.26262764    -0.11500
C706        C  0.74999998  0.35591461  0.26832400    -0.13000
C707        C  0.74999958  0.38816611  0.48483224    -0.11500
C708        C  0.49999952  0.35557834  0.47713727    -0.13000
C709        C  0.74999968  0.64438992  0.23290841    -0.11500
C710        C  0.74999961  0.61169979  0.23923990    -0.13000
C711        C  0.75000048  0.64382503  0.52467956    -0.11500
C712        C  0.75000045  0.61111508  0.51757840    -0.13000
C713        C  0.62499998  0.11128139  0.26257116    -0.11500
C714        C  0.62500004  0.14406117  0.26827568    -0.13000
C715        C  0.62499975  0.88827991  0.23926513    -0.11500
C716        C  0.62499970  0.85559080  0.23293746    -0.13000
C717        C  0.62499963  0.14442000  0.47712902    -0.11500
C718        C  0.62499964  0.11182919  0.48481324    -0.13000
C719        C  0.62500035  0.85567637  0.01745948    -0.11500
C720        C  0.62500012  0.88842054  0.01184091    -0.13000
O721        O  0.58875920  0.99657322  0.92638942    -0.71100
O722        O  0.58874867  0.00458836  0.57536391    -0.72100
O723        O  0.58878179  0.05547179  0.49466777    -0.60700
O724        O  0.58878976  0.94535472  0.50780933    -0.69100
O725        O  0.66121020  0.94535481  0.50780895    -0.68700
O726        O  0.66122067  0.05489795  0.99608928    -0.60000
O727        O  0.66125090  0.00458836  0.57536361    -0.72500
O728        O  0.66123952  0.99657325  0.92638877    -0.71200
Cu729      Cu  0.58625329  0.00044342  0.50118950     1.04600
Cu730      Cu  0.66375243  0.99983168  0.00081979     1.04300
C731        C  0.62499931  0.99573907  0.90294443     0.95100
C732        C  0.62499973  0.00512506  0.59875665     0.94200
C733        C  0.62499949  0.07212767  0.99418286     0.86300
C734        C  0.62500003  0.92813231  0.51053938     0.92600
O735        O  0.58874790  0.00363935  0.67646823    -0.71100
O736        O  0.58875884  0.99553088  0.82498852    -0.72100
O737        O  0.58877153  0.05435419  0.75652175    -0.60700
O738        O  0.58878876  0.94431734  0.74406286    -0.69100
O739        O  0.66120978  0.94431721  0.74406255    -0.68700
O740        O  0.66122752  0.05435402  0.75652138    -0.60000
O741        O  0.66123965  0.99553080  0.82498812    -0.72500
O742        O  0.66125111  0.00363909  0.67646799    -0.71200
Cu743      Cu  0.58624859  0.99941012  0.75061158     1.04600
Cu744      Cu  0.66375016  0.99940995  0.75061124     1.04300
C745        C  0.62499958  0.00459842  0.65310022     0.95100
C746        C  0.62499924  0.99515332  0.84845154     0.94200
C747        C  0.62499957  0.07156152  0.75835775     0.86300
C748        C  0.62499925  0.92712402  0.74102586     0.92600
C749        C  0.62499954  0.18318922  0.97336713     0.04900
C750        C  0.66466127  0.20207082  0.96929092    -0.11200
C751        C  0.66581890  0.23970217  0.95874203     0.02400
C752        C  0.62499964  0.25766280  0.95160905    -0.09700
C753        C  0.58418032  0.23970219  0.95874203     0.04900
C754        C  0.58533786  0.20207085  0.96929086    -0.09200
H755        H  0.69448288  0.18711868  0.97580977     0.10500
H756        H  0.62499969  0.28576329  0.94032993     0.08100
H757        H  0.55551616  0.18711871  0.97580963     0.07900
C758        C  0.62499969  0.18296145  0.77387119     0.04900
C759        C  0.58536019  0.20190386  0.77697876    -0.11200
C760        C  0.58418292  0.23969853  0.78631492     0.02400
C761        C  0.62499957  0.25771644  0.79298881    -0.09700
C762        C  0.66581631  0.23969852  0.78631512     0.04900
C763        C  0.66463921  0.20190383  0.77697883    -0.08800
H764        H  0.55561081  0.18674071  0.77099473     0.10500
H765        H  0.62499945  0.28587368  0.80392495     0.08100
H766        H  0.69438859  0.18674070  0.77099479     0.07900
C767        C  0.62500036  0.81705120  0.53427481     0.04900
C768        C  0.66466470  0.79808364  0.53820223    -0.11200
C769        C  0.66582231  0.76034571  0.54835976     0.02400
C770        C  0.62500037  0.74237745  0.55528645    -0.09700
C771        C  0.58417847  0.76034567  0.54835978     0.04900
C772        C  0.58533602  0.79808359  0.53820223    -0.09200
H773        H  0.69447404  0.81305973  0.53179358     0.10500
H774        H  0.62500034  0.71425918  0.56643050     0.08100
H775        H  0.55552676  0.81305960  0.53179361     0.07900
C776        C  0.62499942  0.81673517  0.71212331     0.04900
C777        C  0.66467383  0.79787525  0.70732285    -0.11200
C778        C  0.66582456  0.76033709  0.69601747     0.02400
C779        C  0.62499968  0.74242348  0.68866024    -0.09700
C780        C  0.58417467  0.76033710  0.69601733     0.04900
C781        C  0.58532514  0.79787524  0.70732278    -0.09200
H782        H  0.69455531  0.81266879  0.71423940     0.10500
H783        H  0.62499981  0.71435855  0.67717369     0.08100
H784        H  0.55544353  0.81266875  0.71423940     0.07900
C785        C  0.75000060  0.68329983  0.02641408     0.04900
C786        C  0.53965363  0.70213756  0.03042011    -0.11200
C787        C  0.54081870  0.73972892  0.04096594     0.02400
C788        C  0.75000035  0.75760373  0.55528649    -0.09700
C789        C  0.70918221  0.73972896  0.04096601     0.04900
C790        C  0.71034744  0.70213760  0.03042015    -0.09200
H791        H  0.56947634  0.68715566  0.02392417     0.10500
H792        H  0.75000031  0.78571917  0.56643216     0.08100
H793        H  0.68052486  0.68715574  0.02392401     0.07900
C794        C  0.74999970  0.68325535  0.71210677     0.04900
C795        C  0.71032535  0.70211675  0.70731034    -0.11200
C796        C  0.70917467  0.73965888  0.69601438     0.02400
C797        C  0.74999966  0.75757514  0.68866169    -0.09700
C798        C  0.54082466  0.73965889  0.69601429     0.04900
C799        C  0.53967407  0.70211678  0.70731033    -0.09200
H800        H  0.68044380  0.68732082  0.71422405     0.10500
H801        H  0.74999968  0.78564422  0.67718257     0.08100
H802        H  0.56955555  0.68732093  0.71422404     0.07900
C803        C  0.49999943  0.31680885  0.97340926     0.04900
C804        C  0.53966122  0.29792948  0.96932302    -0.11200
C805        C  0.54081889  0.26030417  0.95874961     0.02400
C806        C  0.49999966  0.24234779  0.95160439    -0.09700
C807        C  0.70918031  0.26030412  0.95874976     0.04900
C808        C  0.71033778  0.29792947  0.96932307    -0.09200
H809        H  0.56948272  0.31287824  0.97585014     0.10500
H810        H  0.49999979  0.21425387  0.94030581     0.08100
H811        H  0.68051616  0.31287829  0.97584983     0.07900
C812        C  0.74999969  0.31701941  0.77389659     0.04900
C813        C  0.53963913  0.29807566  0.77699615    -0.11200
C814        C  0.54081630  0.26027712  0.78631854     0.02400
C815        C  0.74999956  0.24225642  0.79298624    -0.09700
C816        C  0.70918291  0.26027713  0.78631889     0.04900
C817        C  0.71036015  0.29807568  0.77699652    -0.09200
H818        H  0.56938856  0.31324130  0.77101749     0.10500
H819        H  0.74999948  0.21409474  0.80391217     0.08100
H820        H  0.68061080  0.31324133  0.77101782     0.07900
O821        O  0.71377851  0.44509394  0.99612897    -0.71100
O822        O  0.71376961  0.55512725  0.00546873    -0.72100
O823        O  0.71375993  0.50342533  0.92641603    -0.60700
O824        O  0.71374909  0.49539524  0.57538804    -0.69100
O825        O  0.53625116  0.49539495  0.57538729    -0.68700
O826        O  0.53624012  0.50342500  0.92641532    -0.60000
O827        O  0.53623113  0.55512693  0.00546800    -0.72500
O828        O  0.53622096  0.44509359  0.99612822    -0.71200
Cu829      Cu  0.71124722  0.50015917  0.00084916     1.04600
Cu830      Cu  0.53875294  0.50015878  0.00084841     1.04300
C831        C  0.74999961  0.42786438  0.99422650     0.95100
C832        C  0.75000045  0.57232705  0.00717876     0.94200
C833        C  0.75000001  0.50425827  0.90297024     0.86300
C834        C  0.75000016  0.49485770  0.59878119     0.92600
O835        O  0.53621060  0.55566864  0.74406243    -0.71100
O836        O  0.53622807  0.44563227  0.75656760    -0.72100
O837        O  0.53625165  0.49634522  0.67649262    -0.60700
O838        O  0.53624045  0.50445841  0.82501183    -0.69100
O839        O  0.71375976  0.50445843  0.82501249    -0.68700
O840        O  0.71374865  0.49634518  0.67649331    -0.60000
O841        O  0.71377215  0.44563231  0.75656838    -0.72500
O842        O  0.71378950  0.55566855  0.74406289    -0.71200
Cu843      Cu  0.53875083  0.50057633  0.75063512     1.04600
Cu844      Cu  0.71124944  0.50057631  0.75063580     1.04300
C845        C  0.74999996  0.57286182  0.74101957     0.95100
C846        C  0.75000012  0.42842466  0.75840725     0.94200
C847        C  0.75000018  0.49538495  0.65312531     0.86300
C848        C  0.75000005  0.50483886  0.84847583     0.92600
C849        C  0.75000005  0.38913141  0.76274023    -0.11500
C850        C  0.74999982  0.35626390  0.76703973    -0.13000
C851        C  0.74999941  0.38857534  0.98893806    -0.11500
C852        C  0.49999938  0.35583408  0.98275787    -0.13000
C853        C  0.74999975  0.64446908  0.72387417    -0.11500
C854        C  0.74999982  0.61198703  0.73272279    -0.13000
C855        C  0.75000067  0.64431000  0.01750109    -0.11500
C856        C  0.75000063  0.61156757  0.01187650    -0.13000
C857        C  0.62499966  0.11085388  0.76269051    -0.11500
C858        C  0.62499970  0.14371983  0.76699910    -0.13000
C859        C  0.62499923  0.88799914  0.73274001    -0.11500
C860        C  0.62499930  0.85551851  0.72389414    -0.13000
C861        C  0.62499950  0.14416032  0.98270521    -0.11500
C862        C  0.62499947  0.11141759  0.98888580    -0.13000
C863        C  0.62500029  0.85616312  0.52468140    -0.11500
C864        C  0.62500015  0.88887420  0.51757679    -0.13000
O865        O  0.83875628  0.99633539  0.42691944    -0.71100
O866        O  0.83876004  0.00288277  0.07529311    -0.72100
O867        O  0.83877839  0.05489791  0.99609003    -0.60700
O868        O  0.83876907  0.94486291  0.00544600    -0.69100
O869        O  0.91123061  0.94486304  0.00544528    -0.68700
O870        O  0.91121757  0.05547191  0.49466774    -0.60000
O871        O  0.91123950  0.00288279  0.07529247    -0.72500
O872        O  0.91124349  0.99633542  0.42691902    -0.71200
Cu873      Cu  0.83624684  0.99983158  0.00082069     1.04600
Cu874      Cu  0.91374639  0.00044351  0.50118940     1.04300
C875        C  0.87499989  0.99575565  0.40348492     0.95100
C876        C  0.87499981  0.00336705  0.09875964     0.94200
C877        C  0.87499963  0.07266433  0.49198515     0.86300
C878        C  0.87499991  0.92766255  0.00715293     0.92600
O879        O  0.83875965  0.00276796  0.17672974    -0.71100
O880        O  0.83875696  0.99653942  0.32559034    -0.72100
O881        O  0.83877704  0.05475061  0.25584729    -0.60700
O882        O  0.83877159  0.94470316  0.24649983    -0.69100
O883        O  0.91122814  0.94470310  0.24649934    -0.68700
O884        O  0.91122270  0.05475057  0.25584656    -0.60000
O885        O  0.91124275  0.99653943  0.32558979    -0.72500
O886        O  0.91124020  0.00276791  0.17672914    -0.71200
Cu887      Cu  0.83624618  0.99969837  0.25117808     1.04600
Cu888      Cu  0.91375360  0.99969833  0.25117745     1.04300
C889        C  0.87499989  0.00330420  0.15326722     0.95100
C890        C  0.87499988  0.99588054  0.34902889     0.94200
C891        C  0.87499988  0.07197956  0.25765417     0.86300
C892        C  0.87499985  0.92750231  0.24460107     0.92600
C893        C  0.87499952  0.18329254  0.46645371     0.04900
C894        C  0.91466724  0.20214204  0.46196699    -0.11200
C895        C  0.91582048  0.23969775  0.45092044     0.02400
C896        C  0.87499963  0.25763312  0.44361656    -0.09700
C897        C  0.83417872  0.23969774  0.45092023     0.04900
C898        C  0.83533184  0.20214201  0.46196667    -0.09200
H899        H  0.94452018  0.18728236  0.46874152     0.10500
H900        H  0.87499971  0.28570924  0.43218543     0.08100
H901        H  0.80547887  0.18728233  0.46874102     0.07900
C902        C  0.87500002  0.18313918  0.27708899     0.04900
C903        C  0.83534303  0.20203244  0.28099083    -0.11200
C904        C  0.83418090  0.23968517  0.29134662     0.02400
C905        C  0.87499984  0.25765410  0.29841622    -0.09700
C906        C  0.91581891  0.23968515  0.29134684     0.04900
C907        C  0.91465691  0.20203243  0.28099097    -0.08800
H908        H  0.80552949  0.18704223  0.27457046     0.10500
H909        H  0.87499974  0.28575075  0.30968072     0.08100
H910        H  0.94447062  0.18704220  0.27457060     0.07900
C911        C  0.87500037  0.81668525  0.02637732     0.04900
C912        C  0.91465354  0.79784766  0.03039194    -0.11200
C913        C  0.91581872  0.76025720  0.04095929     0.02400
C914        C  0.87500045  0.74228601  0.04811076    -0.09700
C915        C  0.83418217  0.76025713  0.04095928     0.04900
C916        C  0.83534727  0.79784756  0.03039186    -0.09200
H917        H  0.94447625  0.81282945  0.02388930     0.10500
H918        H  0.87500045  0.71419432  0.05944265     0.08100
H919        H  0.80552457  0.81282926  0.02388909     0.07900
C920        C  0.87499975  0.81666252  0.22333750     0.04900
C921        C  0.91465696  0.79783285  0.21912513    -0.11200
C922        C  0.91581932  0.76026788  0.20835500     0.02400
C923        C  0.87499991  0.74231067  0.20114172    -0.09700
C924        C  0.83418036  0.76026791  0.20835470     0.04900
C925        C  0.83534262  0.79783289  0.21912475    -0.09200
H926        H  0.94449390  0.81277030  0.22573960     0.10500
H927        H  0.87499999  0.71422456  0.18977111     0.08100
H928        H  0.80550553  0.81277044  0.22573897     0.07900
C929        C  0.00000051  0.68293508  0.53427154     0.04900
C930        C  0.78966476  0.70190178  0.53819936    -0.11200
C931        C  0.79082230  0.73963720  0.54835873     0.02400
C932        C  0.00000043  0.75770081  0.04810731    -0.09700
C933        C  0.95917847  0.73963721  0.54835873     0.04900
C934        C  0.96033613  0.70190177  0.53819936    -0.09200
H935        H  0.81947412  0.68692724  0.53179034     0.10500
H936        H  0.00000035  0.78579371  0.05942202     0.08100
H937        H  0.93052690  0.68692724  0.53179035     0.07900
C938        C  0.99999982  0.68332100  0.22331366     0.04900
C939        C  0.96034263  0.70215231  0.21910711    -0.11200
C940        C  0.95918034  0.73972173  0.20835071     0.02400
C941        C  0.99999983  0.75768206  0.20114421    -0.09700
C942        C  0.79081936  0.73972173  0.20835040     0.04900
C943        C  0.78965699  0.70215228  0.21910674    -0.09200
H944        H  0.93050560  0.68721227  0.22571718     0.10500
H945        H  0.99999987  0.78577294  0.18978447     0.08100
H946        H  0.81949399  0.68721220  0.22571660     0.07900
C947        C  0.74999953  0.31670947  0.46645345     0.04900
C948        C  0.78966728  0.29786114  0.46196550    -0.11200
C949        C  0.79082048  0.26030776  0.45091949     0.02400
C950        C  0.74999965  0.24237394  0.44361618    -0.09700
C951        C  0.95917871  0.26030778  0.45091958     0.04900
C952        C  0.96033183  0.29786117  0.46196553    -0.09200
H953        H  0.81952008  0.31271910  0.46874069     0.10500
H954        H  0.74999968  0.21430004  0.43218605     0.08100
H955        H  0.93047896  0.31271915  0.46874076     0.07900
C956        C  0.99999993  0.31683241  0.27712110     0.04900
C957        C  0.78965680  0.29793714  0.28101364    -0.11200
C958        C  0.79081887  0.26027949  0.29135158     0.02400
C959        C  0.99999986  0.24230716  0.29841277    -0.09700
C960        C  0.95918089  0.26027950  0.29135186     0.04900
C961        C  0.96034301  0.29793718  0.28101398    -0.09200
H962        H  0.81947050  0.31293032  0.27459994     0.10500
H963        H  0.99999982  0.21420515  0.30966383     0.08100
H964        H  0.93052935  0.31293040  0.27460046     0.07900
O965        O  0.96378198  0.44452033  0.49469824    -0.71100
O966        O  0.96379024  0.55463574  0.50782047    -0.72100
O967        O  0.96375642  0.50366202  0.42694075    -0.60700
O968        O  0.96376037  0.49709844  0.07532131    -0.69100
O969        O  0.78623987  0.49709821  0.07532080    -0.68700
O970        O  0.78624370  0.50366179  0.42694019    -0.60000
O971        O  0.78621046  0.55463551  0.50782009    -0.72500
O972        O  0.78621776  0.44452006  0.49469761    -0.71200
Cu973      Cu  0.96125367  0.49954764  0.50121180     1.04600
Cu974      Cu  0.78874660  0.49954737  0.50121125     1.04300
C975        C  0.99999977  0.42732851  0.49201304     0.95100
C976        C  0.00000052  0.57185778  0.51054745     0.94200
C977        C  0.00000006  0.50423999  0.40350601     0.86300
C978        C  0.00000018  0.49661172  0.09878770     0.92600
O979        O  0.78622810  0.55527644  0.24649583    -0.71100
O980        O  0.78622296  0.44522884  0.25589638    -0.72100
O981        O  0.78624042  0.49720847  0.17675582    -0.60700
O982        O  0.78624290  0.50344551  0.32561180    -0.69100
O983        O  0.96375708  0.50344548  0.32561237    -0.68700
O984        O  0.96375976  0.49720850  0.17675630    -0.60000
O985        O  0.96377734  0.44522884  0.25589681    -0.72500
O986        O  0.96377162  0.55527644  0.24649653    -0.71200
Cu987      Cu  0.78875379  0.50028147  0.25120156     1.04600
Cu988      Cu  0.96124627  0.50028145  0.25120212     1.04300
C989        C  0.99999989  0.57247721  0.24458984     0.95100
C990        C  0.00000015  0.42799954  0.25770797     0.94200
C991        C  0.00000011  0.49667206  0.15329446     0.86300
C992        C  0.00000000  0.50410819  0.34905035     0.92600
C993        C  0.00000013  0.38869657  0.26262773    -0.11500
C994        C  0.00000002  0.35591462  0.26832418    -0.13000
C995        C  0.99999959  0.38816611  0.48483224    -0.11500
C996        C  0.74999951  0.35557835  0.47713738    -0.13000
C997        C  0.99999986  0.64438994  0.23290841    -0.11500
C998        C  0.99999989  0.61169982  0.23923989    -0.13000
C999        C  0.00000060  0.64382500  0.52467968    -0.11500
C1000       C  0.00000064  0.61111503  0.51757859    -0.13000
C1001       C  0.87499995  0.11128132  0.26257126    -0.11500
C1002       C  0.87500003  0.14406111  0.26827569    -0.13000
C1003       C  0.87499982  0.88827986  0.23926521    -0.11500
C1004       C  0.87499974  0.85559077  0.23293745    -0.13000
C1005       C  0.87499943  0.14442007  0.47712921    -0.11500
C1006       C  0.87499946  0.11182924  0.48481342    -0.13000
C1007       C  0.87500025  0.85567638  0.01745986    -0.11500
C1008       C  0.87500011  0.88842054  0.01184130    -0.13000
O1009       O  0.83875926  0.99657322  0.92638965    -0.71100
O1010       O  0.83874870  0.00458836  0.57536412    -0.72100
O1011       O  0.83878183  0.05547177  0.49466811    -0.60700
O1012       O  0.83878981  0.94535475  0.50780967    -0.69100
O1013       O  0.91121025  0.94535486  0.50780928    -0.68700
O1014       O  0.91122072  0.05489792  0.99608931    -0.60000
O1015       O  0.91125094  0.00458838  0.57536382    -0.72500
O1016       O  0.91123959  0.99657323  0.92638897    -0.71200
Cu1017     Cu  0.83625335  0.00044343  0.50118980     1.04600
Cu1018     Cu  0.91375246  0.99983164  0.00081995     1.04300
C1019       C  0.87499937  0.99573906  0.90294465     0.95100
C1020       C  0.87499976  0.00512508  0.59875683     0.94200
C1021       C  0.87499954  0.07212766  0.99418301     0.86300
C1022       C  0.87500008  0.92813235  0.51053967     0.92600
O1023       O  0.83874796  0.00363930  0.67646837    -0.71100
O1024       O  0.83875889  0.99553091  0.82498875    -0.72100
O1025       O  0.83877152  0.05435420  0.75652182    -0.60700
O1026       O  0.83878882  0.94431733  0.74406308    -0.69100
O1027       O  0.91120983  0.94431722  0.74406269    -0.68700
O1028       O  0.91122751  0.05435403  0.75652171    -0.60000
O1029       O  0.91123970  0.99553079  0.82498834    -0.72500
O1030       O  0.91125118  0.00363925  0.67646812    -0.71200
Cu1031     Cu  0.83624864  0.99941012  0.75061176     1.04600
Cu1032     Cu  0.91375020  0.99940999  0.75061144     1.04300
C1033       C  0.87499963  0.00459848  0.65310037     0.95100
C1034       C  0.87499929  0.99515333  0.84845177     0.94200
C1035       C  0.87499956  0.07156152  0.75835801     0.86300
C1036       C  0.87499931  0.92712402  0.74102602     0.92600
C1037       C  0.87499957  0.18318923  0.97336782     0.04900
C1038       C  0.91466128  0.20207084  0.96929161    -0.11200
C1039       C  0.91581890  0.23970218  0.95874278     0.02400
C1040       C  0.87499964  0.25766280  0.95160978    -0.09700
C1041       C  0.83418033  0.23970218  0.95874272     0.04900
C1042       C  0.83533788  0.20207084  0.96929160    -0.09200
H1043       H  0.94448291  0.18711867  0.97581036     0.10500
H1044       H  0.87499967  0.28576328  0.94033061     0.08100
H1045       H  0.80551620  0.18711868  0.97581034     0.07900
C1046       C  0.87499966  0.18296144  0.77387157     0.04900
C1047       C  0.83536012  0.20190383  0.77697920    -0.11200
C1048       C  0.83418291  0.23969852  0.78631544     0.02400
C1049       C  0.87499955  0.25771642  0.79298924    -0.09700
C1050       C  0.91581627  0.23969852  0.78631543     0.04900
C1051       C  0.91463913  0.20190383  0.77697920    -0.08800
H1052       H  0.80561083  0.18674074  0.77099514     0.10500
H1053       H  0.87499951  0.28587366  0.80392532     0.08100
H1054       H  0.94438855  0.18674070  0.77099513     0.07900
C1055       C  0.87500039  0.81705123  0.53427480     0.04900
C1056       C  0.91466472  0.79808365  0.53820215    -0.11200
C1057       C  0.91582230  0.76034569  0.54835947     0.02400
C1058       C  0.87500035  0.74237742  0.55528605    -0.09700
C1059       C  0.83417845  0.76034568  0.54835948     0.04900
C1060       C  0.83533604  0.79808364  0.53820215    -0.09200
H1061       H  0.94447407  0.81305974  0.53179362     0.10500
H1062       H  0.87500035  0.71425913  0.56643001     0.08100
H1063       H  0.80552680  0.81305971  0.53179363     0.07900
C1064       C  0.87499946  0.81673517  0.71212330     0.04900
C1065       C  0.91467386  0.79787525  0.70732278    -0.11200
C1066       C  0.91582456  0.76033710  0.69601733     0.02400
C1067       C  0.87499967  0.74242349  0.68866016    -0.09700
C1068       C  0.83417466  0.76033711  0.69601731     0.04900
C1069       C  0.83532517  0.79787525  0.70732277    -0.09200
H1070       H  0.94455535  0.81266876  0.71423939     0.10500
H1071       H  0.87499978  0.71435855  0.67717367     0.08100
H1072       H  0.80544356  0.81266876  0.71423939     0.07900
C1073       C  0.00000059  0.68329982  0.02641431     0.04900
C1074       C  0.78965368  0.70213755  0.03042047    -0.11200
C1075       C  0.79081873  0.73972891  0.04096632     0.02400
C1076       C  0.00000033  0.75760372  0.55528649    -0.09700
C1077       C  0.95918221  0.73972896  0.04096638     0.04900
C1078       C  0.96034745  0.70213759  0.03042053    -0.09200
H1079       H  0.81947639  0.68715566  0.02392453     0.10500
H1080       H  0.00000024  0.78571916  0.56643215     0.08100
H1081       H  0.93052485  0.68715572  0.02392440     0.07900
C1082       C  0.99999965  0.68325536  0.71210678     0.04900
C1083       C  0.96032528  0.70211675  0.70731033    -0.11200
C1084       C  0.95917467  0.73965889  0.69601431     0.02400
C1085       C  0.99999967  0.75757514  0.68866169    -0.09700
C1086       C  0.79082463  0.73965890  0.69601429     0.04900
C1087       C  0.78967402  0.70211680  0.70731032    -0.09200
H1088       H  0.93044379  0.68732087  0.71422403     0.10500
H1089       H  0.99999971  0.78564423  0.67718257     0.08100
H1090       H  0.81955555  0.68732094  0.71422403     0.07900
C1091       C  0.74999946  0.31680881  0.97340986     0.04900
C1092       C  0.78966125  0.29792947  0.96932346    -0.11200
C1093       C  0.79081892  0.26030413  0.95875014     0.02400
C1094       C  0.74999970  0.24234775  0.95160504    -0.09700
C1095       C  0.95918029  0.26030413  0.95875036     0.04900
C1096       C  0.96033779  0.29792949  0.96932351    -0.09200
H1097       H  0.81948274  0.31287825  0.97585051     0.10500
H1098       H  0.74999985  0.21425372  0.94030666     0.08100
H1099       H  0.93051621  0.31287831  0.97585034     0.07900
C1100       C  0.99999966  0.31701941  0.77389665     0.04900
C1101       C  0.78963916  0.29807566  0.77699671    -0.11200
C1102       C  0.79081630  0.26027712  0.78631905     0.02400
C1103       C  0.99999955  0.24225641  0.79298624    -0.09700
C1104       C  0.95918287  0.26027713  0.78631904     0.04900
C1105       C  0.96036010  0.29807570  0.77699676    -0.09200
H1106       H  0.81938859  0.31324132  0.77101818     0.10500
H1107       H  0.99999952  0.21409473  0.80391214     0.08100
H1108       H  0.93061076  0.31324139  0.77101830     0.07900
O1109       O  0.96377860  0.44509395  0.99612905    -0.71100
O1110       O  0.96376970  0.55512723  0.00546882    -0.72100
O1111       O  0.96376005  0.50342538  0.92641610    -0.60700
O1112       O  0.96374918  0.49539524  0.57538803    -0.69100
O1113       O  0.78625120  0.49539494  0.57538754    -0.68700
O1114       O  0.78624009  0.50342503  0.92641559    -0.60000
O1115       O  0.78623112  0.55512698  0.00546813    -0.72500
O1116       O  0.78622090  0.44509364  0.99612862    -0.71200
Cu1117     Cu  0.96124732  0.50015918  0.00084923     1.04600
Cu1118     Cu  0.78875284  0.50015887  0.00084866     1.04300
C1119       C  0.99999970  0.42786438  0.99422652     0.95100
C1120       C  0.00000053  0.57232706  0.00717877     0.94200
C1121       C  0.00000012  0.50425833  0.90297027     0.86300
C1122       C  0.00000021  0.49485769  0.59878120     0.92600
O1123       O  0.78621053  0.55566866  0.74406256    -0.71100
O1124       O  0.78622812  0.44563227  0.75656778    -0.72100
O1125       O  0.78625172  0.49634522  0.67649287    -0.60700
O1126       O  0.78624037  0.50445841  0.82501210    -0.69100
O1127       O  0.96375982  0.50445844  0.82501253    -0.68700
O1128       O  0.96374864  0.49634521  0.67649328    -0.60000
O1129       O  0.96377210  0.44563233  0.75656835    -0.72500
O1130       O  0.96378949  0.55566856  0.74406290    -0.71200
Cu1131     Cu  0.78875083  0.50057634  0.75063534     1.04600
Cu1132     Cu  0.96124939  0.50057632  0.75063580     1.04300
C1133       C  0.99999996  0.57286182  0.74101956     0.95100
C1134       C  0.00000006  0.42842466  0.75840742     0.94200
C1135       C  0.00000023  0.49538489  0.65312532     0.86300
C1136       C  0.00000013  0.50483892  0.84847585     0.92600
C1137       C  0.99999994  0.38913142  0.76274044    -0.11500
C1138       C  0.99999974  0.35626390  0.76703984    -0.13000
C1139       C  0.99999948  0.38857536  0.98893804    -0.11500
C1140       C  0.74999937  0.35583405  0.98275850    -0.13000
C1141       C  0.99999971  0.64446908  0.72387417    -0.11500
C1142       C  0.99999983  0.61198703  0.73272279    -0.13000
C1143       C  0.00000067  0.64431001  0.01750117    -0.11500
C1144       C  0.00000066  0.61156758  0.01187649    -0.13000
C1145       C  0.87499964  0.11085387  0.76269088    -0.11500
C1146       C  0.87499966  0.14371982  0.76699947    -0.13000
C1147       C  0.87499929  0.88799914  0.73274004    -0.11500
C1148       C  0.87499935  0.85551852  0.72389414    -0.13000
C1149       C  0.87499955  0.14416031  0.98270567    -0.11500
C1150       C  0.87499952  0.11141757  0.98888608    -0.13000
C1151       C  0.87500035  0.85616315  0.52468142    -0.11500
C1152       C  0.87500021  0.88887423  0.51757690    -0.13000
loop_ 
_geom_bond_atom_site_label_1 
_geom_bond_atom_site_label_2 
_geom_bond_distance 
_geom_bond_site_symmetry_2 
_ccdc_geom_bond_type 
O1           C11   1.278       .  A
O1         Cu153   2.009   1_565  S
O2           C12   1.278       .  A
O2           Cu9   2.012   1_545  S
O3          C157   1.279       .  A
O3           Cu9   2.032   1_546  S
O4           C14   1.279       .  A
O4           Cu9   2.028       .  S
O5           C14   1.279       .  A
O5         Cu154   2.028       .  S
O6           C13   1.279       .  A
O6          Cu10   2.034       .  S
O7           C12   1.278       .  A
O7         Cu154   2.012   1_545  S
O8           C11   1.278       .  A
O8          Cu10   2.009   1_565  S
Cu9         O145   2.011   1_554  S
Cu9        Cu154   2.374       .  S
Cu10        O149   2.037   1_545  S
Cu10        O151   2.007       .  S
Cu10       Cu153   2.374       .  S
C11          C26   1.468       .  S
C12          C25   1.469       .  S
C13         O147   1.279       .  A
C13         C142   1.454       .  S
C14         C144   1.450       .  S
O15          C25   1.278       .  A
O15         Cu23   2.011   1_545  S
O16          C26   1.278       .  A
O16         Cu23   2.011       .  S
O17          C27   1.279       .  A
O17         Cu23   2.031   1_545  S
O18          C28   1.279       .  A
O18         Cu23   2.029       .  S
O19          C28   1.279       .  A
O19         Cu24   2.029       .  S
O20          C27   1.279       .  A
O20         Cu24   2.031   1_545  S
O21          C26   1.278       .  A
O21         Cu24   2.011       .  S
O22          C25   1.278       .  A
O22         Cu24   2.011   1_545  S
Cu23        Cu24   2.375       .  S
C27         C137   1.452       .  S
C28         C139   1.451       .  S
C29         C141   1.459       .  S
C29          C30   1.405       .  A
C29          C34   1.405       .  A
C30          C31   1.414       .  A
C30          H35   1.081       .  S
C31          C87   1.530       .  S
C31          C32   1.428       .  A
C32          C33   1.428       .  A
C32          H36   1.078       .  S
C33          C85   1.530       .  S
C33          C34   1.414       .  A
C34          H37   1.081       .  S
C38         C138   1.458       .  S
C38          C39   1.404       .  A
C38          C43   1.404       .  A
C39          C40   1.414       .  A
C39          H44   1.081       .  S
C40          C94   1.529       .  S
C40          C41   1.427       .  A
C41          C42   1.427       .  A
C41          H45   1.078       .  S
C42          C96   1.529       .  S
C42          C43   1.414       .  A
C43          H46   1.081       .  S
C47         C143   1.455       .  S
C47          C48   1.403       .  A
C47          C52   1.403       .  A
C48          C49   1.413       .  A
C48          H53   1.081       .  S
C49         C213   1.528       .  S
C49          C50   1.428       .  A
C50          C51   1.428       .  A
C50          H54   1.078       .  S
C51         C211   1.528       .  S
C51          C52   1.413       .  A
C52          H55   1.081       .  S
C56         C140   1.456       .  S
C56          C57   1.403       .  A
C56          C61   1.403       .  A
C57          C58   1.413       .  A
C57          H62   1.081       .  S
C58          C76   1.529       .  S
C58          C59   1.428       .  A
C59          C60   1.428       .  A
C59          H63   1.078       .  S
C60          C78   1.529       .  S
C60          C61   1.413       .  A
C61          H64   1.081       .  S
C65         C135   1.462       .  S
C65          C70   1.405       .  A
C65         C354   1.405       .  A
C66          C67   1.416       .  A
C66         C929   1.405       .  A
C66          H71   1.081       .  S
C67         C195   1.531       .  S
C67        C1076   1.427       .  A
C68         C499   1.428       .  A
C68         C213   1.428       .  A
C68          H72   1.078       .  S
C69         C193   1.531       .  S
C69          C70   1.416       .  A
C69         C212   1.427       .  A
C70          H73   1.081       .  S
C74         C133   1.456       .  S
C74          C75   1.403       .  A
C74         C367   1.403       .  A
C75          C76   1.413       .  A
C75          H80   1.081       .  S
C76          C77   1.428       .  A
C77         C366   1.428       .  A
C77          H81   1.078       .  S
C78          C79   1.413       .  A
C78         C941   1.428   1_455  A
C79         C938   1.403   1_455  A
C79          H82   1.081       .  S
C83         C132   1.459       .  S
C83          C84   1.405   1_655  A
C83         C952   1.405       .  A
C84          C85   1.414       .  A
C84          H89   1.081       .  S
C85          C86   1.428   1_455  A
C86         C951   1.428       .  A
C86          H90   1.078       .  S
C87          C88   1.414       .  A
C87         C374   1.428       .  A
C88         C371   1.405       .  A
C88          H91   1.081       .  S
C92         C130   1.458       .  S
C92          C97   1.404       .  A
C92         C381   1.404       .  A
C93          C94   1.414       .  A
C93         C956   1.404   1_455  A
C93          H98   1.081       .  S
C94         C959   1.427   1_455  A
C95          C96   1.427       .  A
C95         C382   1.427       .  A
C95          H99   1.078       .  S
C96          C97   1.414       .  A
C97         H100   1.081       .  S
O101        C111   1.279       .  A
O101       Cu109   2.034       .  S
O102        C112   1.280       .  A
O102       Cu109   2.037       .  S
O103        C113   1.278       .  A
O103       Cu109   2.009       .  S
O104        C114   1.278       .  A
O104       Cu253   2.012       .  S
O105        C978   1.278       .  A
O105       Cu254   2.012       .  S
O106        C977   1.278       .  A
O106       Cu110   2.009       .  S
O107        C976   1.280       .  A
O107       Cu110   2.037       .  S
O108        C975   1.279   1_455  A
O108       Cu110   2.034       .  S
Cu109       O248   2.007       .  S
Cu109      Cu398   2.374       .  S
Cu110       O249   2.007       .  S
Cu110      Cu973   2.374   1_455  S
C111        O396   1.279       .  A
C111        C131   1.454       .  S
C112        O395   1.280       .  A
C112        C136   1.457       .  S
C113        O394   1.278       .  A
C113        C128   1.468       .  S
C114        O393   1.278       .  A
C114        C127   1.469       .  S
O115        C989   1.279   1_455  A
O115       Cu123   2.029       .  S
O116        C990   1.279       .  A
O116       Cu123   2.031       .  S
O117        C991   1.278       .  A
O117       Cu123   2.011       .  S
O118        C992   1.278       .  A
O118       Cu123   2.011       .  S
O119        C128   1.278       .  A
O119       Cu124   2.011       .  S
O120        C127   1.278       .  A
O120       Cu124   2.011       .  S
O121        C126   1.279       .  A
O121       Cu124   2.031       .  S
O122        C125   1.279       .  A
O122       Cu124   2.029       .  S
Cu123      Cu988   2.375   1_455  S
Cu124      Cu411   2.375       .  S
C125        O403   1.279       .  A
C125        C134   1.451       .  S
C126        O404   1.279       .  A
C126        C129   1.452       .  S
C127        O405   1.278       .  A
C128        O406   1.278       .  A
C129        C130   1.216       .  T
C131        C420   1.217       .  T
C132        C995   1.217       .  T
C133        C134   1.215       .  T
C135        C136   1.219       .  T
C137        C138   1.216       .  T
C139        C140   1.215       .  T
C141        C142   1.217       .  T
C143        C144   1.214       .  T
O145        C155   1.278       .  A
O146        C156   1.277       .  A
O146       Cu153   2.007       .  S
O147       Cu153   2.034       .  S
O148        C158   1.280       .  A
O148       Cu153   2.037   1_565  S
O149        C158   1.280       .  A
O150        C157   1.279       .  A
O150       Cu154   2.032   1_546  S
O151        C156   1.277       .  A
O152        C155   1.278       .  A
O152       Cu154   2.011   1_556  S
C155        C170   1.469       .  S
C156        C169   1.465       .  S
C157        C286   1.453       .  S
C158        C288   1.457       .  S
O159        C169   1.277       .  A
O159       Cu167   2.006   1_545  S
O160        C170   1.278       .  A
O160       Cu167   2.011       .  S
O161        C171   1.279       .  A
O161       Cu167   2.030   1_545  S
O162        C172   1.280       .  A
O162       Cu167   2.037       .  S
O163        C172   1.280       .  A
O163       Cu168   2.037       .  S
O164        C171   1.279       .  A
O164       Cu168   2.030   1_545  S
O165        C170   1.278       .  A
O165       Cu168   2.011       .  S
O166        C169   1.277       .  A
O166       Cu168   2.006   1_545  S
Cu167      Cu168   2.374       .  S
C171        C281   1.451       .  S
C172        C283   1.457       .  S
C173        C285   1.458       .  S
C173        C174   1.404       .  A
C173        C178   1.404       .  A
C174        C175   1.414       .  A
C174        H179   1.081       .  S
C175        C231   1.530       .  S
C175        C176   1.427       .  A
C176        C177   1.427       .  A
C176        H180   1.078       .  S
C177        C229   1.530       .  S
C177        C178   1.414       .  A
C178        H181   1.081       .  S
C182        C282   1.456       .  S
C182        C183   1.403       .  A
C182        C187   1.403       .  A
C183        C184   1.414       .  A
C183        H188   1.081       .  S
C184        C238   1.529       .  S
C184        C185   1.427       .  A
C185        C186   1.427       .  A
C185        H189   1.077       .  S
C186        C240   1.529       .  S
C186        C187   1.414       .  A
C187        H190   1.081       .  S
C191        C287   1.462       .  S
C191        C192   1.405       .  A
C191        C196   1.405       .  A
C192        C193   1.416       .  A
C192        H197   1.081       .  S
C193        C194   1.427       .  A
C194        C195   1.427       .  A
C194        H198   1.077       .  S
C195        C196   1.416       .  A
C196        H199   1.081       .  S
C200        C284   1.462       .  S
C200        C201   1.406       .  A
C200        C205   1.406       .  A
C201        C202   1.415       .  A
C201        H206   1.081       .  S
C202        C220   1.531       .  S
C202        C203   1.428       .  A
C203        C204   1.428       .  A
C203        H207   1.078       .  S
C204        C222   1.531       .  S
C204        C205   1.415       .  A
C205        H208   1.081       .  S
C209        C279   1.455       .  S
C209        C498   1.403       .  A
C209        C214   1.403       .  A
C210       C1073   1.403       .  A
C210        C211   1.413       .  A
C210        H215   1.081       .  S
C211        C932   1.428       .  A
C212        C355   1.427       .  A
C212        H216   1.077       .  S
C213        C214   1.413       .  A
C214        H217   1.081       .  S
C218        C277   1.462       .  S
C218        C219   1.406       .  A
C218        C511   1.406       .  A
C219        C220   1.415       .  A
C219        H224   1.081       .  S
C220        C221   1.428       .  A
C221        C510   1.428       .  A
C221        H225   1.078       .  S
C222       C1085   1.428   1_455  A
C222        C223   1.415       .  A
C223       C1082   1.406   1_455  A
C223        H226   1.081       .  S
C227        C276   1.458       .  S
C227        C228   1.404   1_655  A
C227       C1096   1.404       .  A
C228        C229   1.414       .  A
C228        H233   1.081       .  S
C229        C230   1.427   1_455  A
C230       C1095   1.427       .  A
C230        H234   1.078       .  S
C231        C518   1.427       .  A
C231        C232   1.414       .  A
C232        C515   1.404       .  A
C232        H235   1.081       .  S
C236        C274   1.456       .  S
C236        C525   1.403       .  A
C236        C241   1.403       .  A
C237       C1100   1.403   1_455  A
C237        C238   1.414       .  A
C237        H242   1.081       .  S
C238       C1103   1.427   1_455  A
C239        C526   1.427       .  A
C239        C240   1.427       .  A
C239        H243   1.077       .  S
C240        C241   1.414       .  A
C241        H244   1.081       .  S
O245        C255   1.279       .  A
O245       Cu253   2.032   1_556  S
O246        C256   1.279       .  A
O246       Cu253   2.028       .  S
O247        C257   1.278       .  A
O247       Cu253   2.011   1_556  S
O248        C258   1.277       .  A
O249       C1122   1.277       .  A
O250       C1121   1.278       .  A
O250       Cu254   2.011   1_556  S
O251       C1120   1.279       .  A
O251       Cu254   2.028       .  S
O252       C1119   1.279   1_455  A
O252       Cu254   2.032   1_556  S
Cu253      Cu542   2.374       .  S
Cu254     Cu1117   2.374   1_455  S
C255        O540   1.279       .  A
C255        C275   1.453       .  S
C256        O539   1.279       .  A
C256        C280   1.450       .  S
C257        O538   1.278       .  A
C257        C272   1.469       .  S
C258        O537   1.277       .  A
C258        C271   1.465       .  S
O259       C1133   1.280   1_455  A
O259       Cu267   2.037       .  S
O260       C1134   1.279       .  A
O260       Cu267   2.030       .  S
O261       C1135   1.277       .  A
O261       Cu267   2.006       .  S
O262       C1136   1.278       .  A
O262       Cu267   2.011       .  S
O263        C272   1.278       .  A
O263       Cu268   2.011       .  S
O264        C271   1.277       .  A
O264       Cu268   2.006       .  S
O265        C270   1.279       .  A
O265       Cu268   2.030       .  S
O266        C269   1.280       .  A
O266       Cu268   2.037       .  S
Cu267     Cu1132   2.374   1_455  S
Cu268      Cu555   2.374       .  S
C269        O547   1.280       .  A
C269        C278   1.457       .  S
C270        O548   1.279       .  A
C270        C273   1.451       .  S
C271        O549   1.277       .  A
C272        O550   1.278       .  A
C273        C274   1.215       .  T
C275        C564   1.216       .  T
C276       C1139   1.216       .  T
C277        C278   1.219       .  T
C279        C280   1.214       .  T
C281        C282   1.215       .  T
C283        C284   1.219       .  T
C285        C286   1.216       .  T
C287        C288   1.219       .  T
O289        C299   1.278       .  A
O289       Cu441   2.009   1_565  S
O290        C300   1.278       .  A
O290       Cu297   2.012   1_545  S
O291        C445   1.279       .  A
O291       Cu297   2.032   1_546  S
O292        C302   1.279       .  A
O292       Cu297   2.028       .  S
O293        C302   1.279       .  A
O293       Cu442   2.028       .  S
O294        C301   1.279       .  A
O294       Cu298   2.034       .  S
O295        C300   1.278       .  A
O295       Cu442   2.012   1_545  S
O296        C299   1.278       .  A
O296       Cu298   2.009   1_565  S
Cu297       O433   2.011   1_554  S
Cu297      Cu442   2.374       .  S
Cu298       O437   2.037   1_545  S
Cu298       O439   2.007       .  S
Cu298      Cu441   2.374       .  S
C299        C314   1.468       .  S
C300        C313   1.469       .  S
C301        O435   1.279       .  A
C301        C430   1.454       .  S
C302        C432   1.450       .  S
O303        C313   1.278       .  A
O303       Cu311   2.011   1_545  S
O304        C314   1.278       .  A
O304       Cu311   2.011       .  S
O305        C315   1.279       .  A
O305       Cu311   2.031   1_545  S
O306        C316   1.279       .  A
O306       Cu311   2.029       .  S
O307        C316   1.279       .  A
O307       Cu312   2.029       .  S
O308        C315   1.279       .  A
O308       Cu312   2.031   1_545  S
O309        C314   1.278       .  A
O309       Cu312   2.011       .  S
O310        C313   1.278       .  A
O310       Cu312   2.011   1_545  S
Cu311      Cu312   2.375       .  S
C315        C425   1.452       .  S
C316        C427   1.451       .  S
C317        C429   1.459       .  S
C317        C318   1.405       .  A
C317        C322   1.405       .  A
C318        C319   1.414       .  A
C318        H323   1.081       .  S
C319        C375   1.530       .  S
C319        C320   1.428       .  A
C320        C321   1.428       .  A
C320        H324   1.078       .  S
C321        C373   1.530       .  S
C321        C322   1.414       .  A
C322        H325   1.081       .  S
C326        C426   1.458       .  S
C326        C327   1.404       .  A
C326        C331   1.404       .  A
C327        C328   1.414       .  A
C327        H332   1.081       .  S
C328        C382   1.529       .  S
C328        C329   1.427       .  A
C329        C330   1.427       .  A
C329        H333   1.078       .  S
C330        C384   1.529       .  S
C330        C331   1.414       .  A
C331        H334   1.081       .  S
C335        C431   1.455       .  S
C335        C336   1.403       .  A
C335        C340   1.403       .  A
C336        C337   1.413       .  A
C336        H341   1.081       .  S
C337        C501   1.528       .  S
C337        C338   1.428       .  A
C338        C339   1.428       .  A
C338        H342   1.078       .  S
C339        C499   1.528       .  S
C339        C340   1.413       .  A
C340        H343   1.081       .  S
C344        C428   1.456       .  S
C344        C345   1.403       .  A
C344        C349   1.403       .  A
C345        C346   1.413       .  A
C345        H350   1.081       .  S
C346        C364   1.529       .  S
C346        C347   1.428       .  A
C347        C348   1.428       .  A
C347        H351   1.078       .  S
C348        C366   1.529       .  S
C348        C349   1.413       .  A
C349        H352   1.081       .  S
C353        C423   1.462       .  S
C353        C642   1.405       .  A
C353        C358   1.405       .  A
C354        C355   1.416       .  A
C354        H359   1.081       .  S
C355        C483   1.531       .  S
C356        C787   1.428       .  A
C356        C501   1.428       .  A
C356        H360   1.078       .  S
C357        C481   1.531       .  S
C357        C500   1.427       .  A
C357        C358   1.416       .  A
C358        H361   1.081       .  S
C362        C421   1.456       .  S
C362        C363   1.403       .  A
C362        C655   1.403       .  A
C363        C364   1.413       .  A
C363        H368   1.081       .  S
C364        C365   1.428       .  A
C365        C654   1.428       .  A
C365        H369   1.078       .  S
C366        C367   1.413       .  A
C367        H370   1.081       .  S
C371        C420   1.459       .  S
C371        C372   1.405       .  A
C372        C373   1.414       .  A
C372        H377   1.081       .  S
C373        C374   1.428       .  A
C374        H378   1.078       .  S
C375        C662   1.428       .  A
C375        C376   1.414       .  A
C376        C659   1.405       .  A
C376        H379   1.081       .  S
C380        C418   1.458       .  S
C380        C669   1.404       .  A
C380        C385   1.404       .  A
C381        C382   1.414       .  A
C381        H386   1.081       .  S
C383        C670   1.427       .  A
C383        C384   1.427       .  A
C383        H387   1.078       .  S
C384        C385   1.414       .  A
C385        H388   1.081       .  S
O389        C399   1.279       .  A
O389       Cu397   2.034       .  S
O390        C400   1.280       .  A
O390       Cu397   2.037       .  S
O391        C401   1.278       .  A
O391       Cu397   2.009       .  S
O392        C402   1.278       .  A
O392       Cu541   2.012       .  S
O393       Cu542   2.012       .  S
O394       Cu398   2.009       .  S
O395       Cu398   2.037       .  S
O396       Cu398   2.034       .  S
Cu397       O536   2.007       .  S
Cu397      Cu686   2.374       .  S
Cu398       O537   2.007       .  S
C399        O684   1.279       .  A
C399        C419   1.454       .  S
C400        O683   1.280       .  A
C400        C424   1.457       .  S
C401        O682   1.278       .  A
C401        C416   1.468       .  S
C402        O681   1.278       .  A
C402        C415   1.469       .  S
O403       Cu411   2.029       .  S
O404       Cu411   2.031       .  S
O405       Cu411   2.011       .  S
O406       Cu411   2.011       .  S
O407        C416   1.278       .  A
O407       Cu412   2.011       .  S
O408        C415   1.278       .  A
O408       Cu412   2.011       .  S
O409        C414   1.279       .  A
O409       Cu412   2.031       .  S
O410        C413   1.279       .  A
O410       Cu412   2.029       .  S
Cu412      Cu699   2.375       .  S
C413        O691   1.279       .  A
C413        C422   1.451       .  S
C414        O692   1.279       .  A
C414        C417   1.452       .  S
C415        O693   1.278       .  A
C416        O694   1.278       .  A
C417        C418   1.216       .  T
C419        C708   1.217       .  T
C421        C422   1.215       .  T
C423        C424   1.219       .  T
C425        C426   1.216       .  T
C427        C428   1.215       .  T
C429        C430   1.217       .  T
C431        C432   1.214       .  T
O433        C443   1.278       .  A
O434        C444   1.277       .  A
O434       Cu441   2.007       .  S
O435       Cu441   2.034       .  S
O436        C446   1.280       .  A
O436       Cu441   2.037   1_565  S
O437        C446   1.280       .  A
O438        C445   1.279       .  A
O438       Cu442   2.032   1_546  S
O439        C444   1.277       .  A
O440        C443   1.278       .  A
O440       Cu442   2.011   1_556  S
C443        C458   1.469       .  S
C444        C457   1.465       .  S
C445        C574   1.453       .  S
C446        C576   1.457       .  S
O447        C457   1.277       .  A
O447       Cu455   2.006   1_545  S
O448        C458   1.278       .  A
O448       Cu455   2.011       .  S
O449        C459   1.279       .  A
O449       Cu455   2.030   1_545  S
O450        C460   1.280       .  A
O450       Cu455   2.037       .  S
O451        C460   1.280       .  A
O451       Cu456   2.037       .  S
O452        C459   1.279       .  A
O452       Cu456   2.030   1_545  S
O453        C458   1.278       .  A
O453       Cu456   2.011       .  S
O454        C457   1.277       .  A
O454       Cu456   2.006   1_545  S
Cu455      Cu456   2.374       .  S
C459        C569   1.451       .  S
C460        C571   1.457       .  S
C461        C573   1.458       .  S
C461        C462   1.404       .  A
C461        C466   1.404       .  A
C462        C463   1.414       .  A
C462        H467   1.081       .  S
C463        C519   1.530       .  S
C463        C464   1.427       .  A
C464        C465   1.427       .  A
C464        H468   1.078       .  S
C465        C517   1.530       .  S
C465        C466   1.414       .  A
C466        H469   1.081       .  S
C470        C570   1.456       .  S
C470        C471   1.403       .  A
C470        C475   1.403       .  A
C471        C472   1.414       .  A
C471        H476   1.081       .  S
C472        C526   1.529       .  S
C472        C473   1.427       .  A
C473        C474   1.427       .  A
C473        H477   1.077       .  S
C474        C528   1.529       .  S
C474        C475   1.414       .  A
C475        H478   1.081       .  S
C479        C575   1.462       .  S
C479        C480   1.405       .  A
C479        C484   1.405       .  A
C480        C481   1.416       .  A
C480        H485   1.081       .  S
C481        C482   1.427       .  A
C482        C483   1.427       .  A
C482        H486   1.077       .  S
C483        C484   1.416       .  A
C484        H487   1.081       .  S
C488        C572   1.462       .  S
C488        C489   1.406       .  A
C488        C493   1.406       .  A
C489        C490   1.415       .  A
C489        H494   1.081       .  S
C490        C508   1.531       .  S
C490        C491   1.428       .  A
C491        C492   1.428       .  A
C491        H495   1.078       .  S
C492        C510   1.531       .  S
C492        C493   1.415       .  A
C493        H496   1.081       .  S
C497        C567   1.455       .  S
C497        C786   1.403       .  A
C497        C502   1.403       .  A
C498        C499   1.413       .  A
C498        H503   1.081       .  S
C500        C643   1.427       .  A
C500        H504   1.077       .  S
C501        C502   1.413       .  A
C502        H505   1.081       .  S
C506        C565   1.462       .  S
C506        C507   1.406       .  A
C506        C799   1.406       .  A
C507        C508   1.415       .  A
C507        H512   1.081       .  S
C508        C509   1.428       .  A
C509        C798   1.428       .  A
C509        H513   1.078       .  S
C510        C511   1.415       .  A
C511        H514   1.081       .  S
C515        C564   1.458       .  S
C515        C516   1.404       .  A
C516        C517   1.414       .  A
C516        H521   1.081       .  S
C517        C518   1.427       .  A
C518        H522   1.078       .  S
C519        C806   1.427       .  A
C519        C520   1.414       .  A
C520        C803   1.404       .  A
C520        H523   1.081       .  S
C524        C562   1.456       .  S
C524        C813   1.403       .  A
C524        C529   1.403       .  A
C525        C526   1.414       .  A
C525        H530   1.081       .  S
C527        C814   1.427       .  A
C527        C528   1.427       .  A
C527        H531   1.077       .  S
C528        C529   1.414       .  A
C529        H532   1.081       .  S
O533        C543   1.279       .  A
O533       Cu541   2.032   1_556  S
O534        C544   1.279       .  A
O534       Cu541   2.028       .  S
O535        C545   1.278       .  A
O535       Cu541   2.011   1_556  S
O536        C546   1.277       .  A
O538       Cu542   2.011   1_556  S
O539       Cu542   2.028       .  S
O540       Cu542   2.032   1_556  S
Cu541      Cu830   2.374       .  S
C543        O828   1.279       .  A
C543        C563   1.453       .  S
C544        O827   1.279       .  A
C544        C568   1.450       .  S
C545        O826   1.278       .  A
C545        C560   1.469       .  S
C546        O825   1.277       .  A
C546        C559   1.465       .  S
O547       Cu555   2.037       .  S
O548       Cu555   2.030       .  S
O549       Cu555   2.006       .  S
O550       Cu555   2.011       .  S
O551        C560   1.278       .  A
O551       Cu556   2.011       .  S
O552        C559   1.277       .  A
O552       Cu556   2.006       .  S
O553        C558   1.279       .  A
O553       Cu556   2.030       .  S
O554        C557   1.280       .  A
O554       Cu556   2.037       .  S
Cu556      Cu843   2.374       .  S
C557        O835   1.280       .  A
C557        C566   1.457       .  S
C558        O836   1.279       .  A
C558        C561   1.451       .  S
C559        O837   1.277       .  A
C560        O838   1.278       .  A
C561        C562   1.215       .  T
C563        C852   1.216       .  T
C565        C566   1.219       .  T
C567        C568   1.214       .  T
C569        C570   1.215       .  T
C571        C572   1.219       .  T
C573        C574   1.216       .  T
C575        C576   1.219       .  T
O577        C587   1.278       .  A
O577       Cu729   2.009   1_565  S
O578        C588   1.278       .  A
O578       Cu585   2.012   1_545  S
O579        C733   1.279       .  A
O579       Cu585   2.032   1_546  S
O580        C590   1.279       .  A
O580       Cu585   2.028       .  S
O581        C590   1.279       .  A
O581       Cu730   2.028       .  S
O582        C589   1.279       .  A
O582       Cu586   2.034       .  S
O583        C588   1.278       .  A
O583       Cu730   2.012   1_545  S
O584        C587   1.278       .  A
O584       Cu586   2.009   1_565  S
Cu585       O721   2.011   1_554  S
Cu585      Cu730   2.374       .  S
Cu586       O725   2.037   1_545  S
Cu586       O727   2.007       .  S
Cu586      Cu729   2.374       .  S
C587        C602   1.468       .  S
C588        C601   1.469       .  S
C589        O723   1.279       .  A
C589        C718   1.454       .  S
C590        C720   1.450       .  S
O591        C601   1.278       .  A
O591       Cu599   2.011   1_545  S
O592        C602   1.278       .  A
O592       Cu599   2.011       .  S
O593        C603   1.279       .  A
O593       Cu599   2.031   1_545  S
O594        C604   1.279       .  A
O594       Cu599   2.029       .  S
O595        C604   1.279       .  A
O595       Cu600   2.029       .  S
O596        C603   1.279       .  A
O596       Cu600   2.031   1_545  S
O597        C602   1.278       .  A
O597       Cu600   2.011       .  S
O598        C601   1.278       .  A
O598       Cu600   2.011   1_545  S
Cu599      Cu600   2.375       .  S
C603        C713   1.452       .  S
C604        C715   1.451       .  S
C605        C717   1.459       .  S
C605        C606   1.405       .  A
C605        C610   1.405       .  A
C606        C607   1.414       .  A
C606        H611   1.081       .  S
C607        C663   1.530       .  S
C607        C608   1.428       .  A
C608        C609   1.428       .  A
C608        H612   1.078       .  S
C609        C661   1.530       .  S
C609        C610   1.414       .  A
C610        H613   1.081       .  S
C614        C714   1.458       .  S
C614        C615   1.404       .  A
C614        C619   1.404       .  A
C615        C616   1.414       .  A
C615        H620   1.081       .  S
C616        C670   1.529       .  S
C616        C617   1.427       .  A
C617        C618   1.427       .  A
C617        H621   1.078       .  S
C618        C672   1.529       .  S
C618        C619   1.414       .  A
C619        H622   1.081       .  S
C623        C719   1.455       .  S
C623        C624   1.403       .  A
C623        C628   1.403       .  A
C624        C625   1.413       .  A
C624        H629   1.081       .  S
C625        C789   1.528       .  S
C625        C626   1.428       .  A
C626        C627   1.428       .  A
C626        H630   1.078       .  S
C627        C787   1.528       .  S
C627        C628   1.413       .  A
C628        H631   1.081       .  S
C632        C716   1.456       .  S
C632        C633   1.403       .  A
C632        C637   1.403       .  A
C633        C634   1.413       .  A
C633        H638   1.081       .  S
C634        C652   1.529       .  S
C634        C635   1.428       .  A
C635        C636   1.428       .  A
C635        H639   1.078       .  S
C636        C654   1.529       .  S
C636        C637   1.413       .  A
C637        H640   1.081       .  S
C641        C711   1.462       .  S
C641        C930   1.405       .  A
C641        C646   1.405       .  A
C642        C643   1.416       .  A
C642        H647   1.081       .  S
C643        C771   1.531       .  S
C644       C1075   1.428       .  A
C644        C789   1.428       .  A
C644        H648   1.078       .  S
C645        C769   1.531       .  S
C645        C788   1.427       .  A
C645        C646   1.416       .  A
C646        H649   1.081       .  S
C650        C709   1.456       .  S
C650        C651   1.403       .  A
C650        C943   1.403       .  A
C651        C652   1.413       .  A
C651        H656   1.081       .  S
C652        C653   1.428       .  A
C653        C942   1.428       .  A
C653        H657   1.078       .  S
C654        C655   1.413       .  A
C655        H658   1.081       .  S
C659        C708   1.459       .  S
C659        C660   1.405       .  A
C660        C661   1.414       .  A
C660        H665   1.081       .  S
C661        C662   1.428       .  A
C662        H666   1.078       .  S
C663        C950   1.428       .  A
C663        C664   1.414       .  A
C664        C947   1.405       .  A
C664        H667   1.081       .  S
C668        C706   1.458       .  S
C668        C957   1.404       .  A
C668        C673   1.404       .  A
C669        C670   1.414       .  A
C669        H674   1.081       .  S
C671        C958   1.427       .  A
C671        C672   1.427       .  A
C671        H675   1.078       .  S
C672        C673   1.414       .  A
C673        H676   1.081       .  S
O677        C687   1.279       .  A
O677       Cu685   2.034       .  S
O678        C688   1.280       .  A
O678       Cu685   2.037       .  S
O679        C689   1.278       .  A
O679       Cu685   2.009       .  S
O680        C690   1.278       .  A
O680       Cu829   2.012       .  S
O681       Cu830   2.012       .  S
O682       Cu686   2.009       .  S
O683       Cu686   2.037       .  S
O684       Cu686   2.034       .  S
Cu685       O824   2.007       .  S
Cu685      Cu974   2.374       .  S
Cu686       O825   2.007       .  S
C687        O972   1.279       .  A
C687        C707   1.454       .  S
C688        O971   1.280       .  A
C688        C712   1.457       .  S
C689        O970   1.278       .  A
C689        C704   1.468       .  S
C690        O969   1.278       .  A
C690        C703   1.469       .  S
O691       Cu699   2.029       .  S
O692       Cu699   2.031       .  S
O693       Cu699   2.011       .  S
O694       Cu699   2.011       .  S
O695        C704   1.278       .  A
O695       Cu700   2.011       .  S
O696        C703   1.278       .  A
O696       Cu700   2.011       .  S
O697        C702   1.279       .  A
O697       Cu700   2.031       .  S
O698        C701   1.279       .  A
O698       Cu700   2.029       .  S
Cu700      Cu987   2.375       .  S
C701        O979   1.279       .  A
C701        C710   1.451       .  S
C702        O980   1.279       .  A
C702        C705   1.452       .  S
C703        O981   1.278       .  A
C704        O982   1.278       .  A
C705        C706   1.216       .  T
C707        C996   1.217       .  T
C709        C710   1.215       .  T
C711        C712   1.219       .  T
C713        C714   1.216       .  T
C715        C716   1.215       .  T
C717        C718   1.217       .  T
C719        C720   1.214       .  T
O721        C731   1.278       .  A
O722        C732   1.277       .  A
O722       Cu729   2.007       .  S
O723       Cu729   2.034       .  S
O724        C734   1.280       .  A
O724       Cu729   2.037   1_565  S
O725        C734   1.280       .  A
O726        C733   1.279       .  A
O726       Cu730   2.032   1_546  S
O727        C732   1.277       .  A
O728        C731   1.278       .  A
O728       Cu730   2.011   1_556  S
C731        C746   1.469       .  S
C732        C745   1.465       .  S
C733        C862   1.453       .  S
C734        C864   1.457       .  S
O735        C745   1.277       .  A
O735       Cu743   2.006   1_545  S
O736        C746   1.278       .  A
O736       Cu743   2.011       .  S
O737        C747   1.279       .  A
O737       Cu743   2.030   1_545  S
O738        C748   1.280       .  A
O738       Cu743   2.037       .  S
O739        C748   1.280       .  A
O739       Cu744   2.037       .  S
O740        C747   1.279       .  A
O740       Cu744   2.030   1_545  S
O741        C746   1.278       .  A
O741       Cu744   2.011       .  S
O742        C745   1.277       .  A
O742       Cu744   2.006   1_545  S
Cu743      Cu744   2.374       .  S
C747        C857   1.451       .  S
C748        C859   1.457       .  S
C749        C861   1.458       .  S
C749        C750   1.404       .  A
C749        C754   1.404       .  A
C750        C751   1.414       .  A
C750        H755   1.081       .  S
C751        C807   1.530       .  S
C751        C752   1.427       .  A
C752        C753   1.427       .  A
C752        H756   1.078       .  S
C753        C805   1.530       .  S
C753        C754   1.414       .  A
C754        H757   1.081       .  S
C758        C858   1.456       .  S
C758        C759   1.403       .  A
C758        C763   1.403       .  A
C759        C760   1.414       .  A
C759        H764   1.081       .  S
C760        C814   1.529       .  S
C760        C761   1.427       .  A
C761        C762   1.427       .  A
C761        H765   1.077       .  S
C762        C816   1.529       .  S
C762        C763   1.414       .  A
C763        H766   1.081       .  S
C767        C863   1.462       .  S
C767        C768   1.405       .  A
C767        C772   1.405       .  A
C768        C769   1.416       .  A
C768        H773   1.081       .  S
C769        C770   1.427       .  A
C770        C771   1.427       .  A
C770        H774   1.077       .  S
C771        C772   1.416       .  A
C772        H775   1.081       .  S
C776        C860   1.462       .  S
C776        C777   1.406       .  A
C776        C781   1.406       .  A
C777        C778   1.415       .  A
C777        H782   1.081       .  S
C778        C796   1.531       .  S
C778        C779   1.428       .  A
C779        C780   1.428       .  A
C779        H783   1.078       .  S
C780        C798   1.531       .  S
C780        C781   1.415       .  A
C781        H784   1.081       .  S
C785        C855   1.455       .  S
C785       C1074   1.403       .  A
C785        C790   1.403       .  A
C786        C787   1.413       .  A
C786        H791   1.081       .  S
C788        C931   1.427       .  A
C788        H792   1.077       .  S
C789        C790   1.413       .  A
C790        H793   1.081       .  S
C794        C853   1.462       .  S
C794        C795   1.406       .  A
C794       C1087   1.406       .  A
C795        C796   1.415       .  A
C795        H800   1.081       .  S
C796        C797   1.428       .  A
C797       C1086   1.428       .  A
C797        H801   1.078       .  S
C798        C799   1.415       .  A
C799        H802   1.081       .  S
C803        C852   1.458       .  S
C803        C804   1.404       .  A
C804        C805   1.414       .  A
C804        H809   1.081       .  S
C805        C806   1.427       .  A
C806        H810   1.078       .  S
C807       C1094   1.427       .  A
C807        C808   1.414       .  A
C808       C1091   1.404       .  A
C808        H811   1.081       .  S
C812        C850   1.456       .  S
C812       C1101   1.403       .  A
C812        C817   1.403       .  A
C813        C814   1.414       .  A
C813        H818   1.081       .  S
C815       C1102   1.427       .  A
C815        C816   1.427       .  A
C815        H819   1.077       .  S
C816        C817   1.414       .  A
C817        H820   1.081       .  S
O821        C831   1.279       .  A
O821       Cu829   2.032   1_556  S
O822        C832   1.279       .  A
O822       Cu829   2.028       .  S
O823        C833   1.278       .  A
O823       Cu829   2.011   1_556  S
O824        C834   1.277       .  A
O826       Cu830   2.011   1_556  S
O827       Cu830   2.028       .  S
O828       Cu830   2.032   1_556  S
Cu829     Cu1118   2.374       .  S
C831       O1116   1.279       .  A
C831        C851   1.453       .  S
C832       O1115   1.279       .  A
C832        C856   1.450       .  S
C833       O1114   1.278       .  A
C833        C848   1.469       .  S
C834       O1113   1.277       .  A
C834        C847   1.465       .  S
O835       Cu843   2.037       .  S
O836       Cu843   2.030       .  S
O837       Cu843   2.006       .  S
O838       Cu843   2.011       .  S
O839        C848   1.278       .  A
O839       Cu844   2.011       .  S
O840        C847   1.277       .  A
O840       Cu844   2.006       .  S
O841        C846   1.279       .  A
O841       Cu844   2.030       .  S
O842        C845   1.280       .  A
O842       Cu844   2.037       .  S
Cu844     Cu1131   2.374       .  S
C845       O1123   1.280       .  A
C845        C854   1.457       .  S
C846       O1124   1.279       .  A
C846        C849   1.451       .  S
C847       O1125   1.277       .  A
C848       O1126   1.278       .  A
C849        C850   1.215       .  T
C851       C1140   1.216       .  T
C853        C854   1.219       .  T
C855        C856   1.214       .  T
C857        C858   1.215       .  T
C859        C860   1.219       .  T
C861        C862   1.216       .  T
C863        C864   1.219       .  T
O865        C875   1.278       .  A
O865      Cu1017   2.009   1_565  S
O866        C876   1.278       .  A
O866       Cu873   2.012   1_545  S
O867       C1021   1.279       .  A
O867       Cu873   2.032   1_546  S
O868        C878   1.279       .  A
O868       Cu873   2.028       .  S
O869        C878   1.279       .  A
O869      Cu1018   2.028       .  S
O870        C877   1.279       .  A
O870       Cu874   2.034       .  S
O871        C876   1.278       .  A
O871      Cu1018   2.012   1_545  S
O872        C875   1.278       .  A
O872       Cu874   2.009   1_565  S
Cu873      O1009   2.011   1_554  S
Cu873     Cu1018   2.374       .  S
Cu874      O1013   2.037   1_545  S
Cu874      O1015   2.007       .  S
Cu874     Cu1017   2.374       .  S
C875        C890   1.468       .  S
C876        C889   1.469       .  S
C877       O1011   1.279       .  A
C877       C1006   1.454       .  S
C878       C1008   1.450       .  S
O879        C889   1.278       .  A
O879       Cu887   2.011   1_545  S
O880        C890   1.278       .  A
O880       Cu887   2.011       .  S
O881        C891   1.279       .  A
O881       Cu887   2.031   1_545  S
O882        C892   1.279       .  A
O882       Cu887   2.029       .  S
O883        C892   1.279       .  A
O883       Cu888   2.029       .  S
O884        C891   1.279       .  A
O884       Cu888   2.031   1_545  S
O885        C890   1.278       .  A
O885       Cu888   2.011       .  S
O886        C889   1.278       .  A
O886       Cu888   2.011   1_545  S
Cu887      Cu888   2.375       .  S
C891       C1001   1.452       .  S
C892       C1003   1.451       .  S
C893       C1005   1.459       .  S
C893        C894   1.405       .  A
C893        C898   1.405       .  A
C894        C895   1.414       .  A
C894        H899   1.081       .  S
C895        C951   1.530       .  S
C895        C896   1.428       .  A
C896        C897   1.428       .  A
C896        H900   1.078       .  S
C897        C949   1.530       .  S
C897        C898   1.414       .  A
C898        H901   1.081       .  S
C902       C1002   1.458       .  S
C902        C903   1.404       .  A
C902        C907   1.404       .  A
C903        C904   1.414       .  A
C903        H908   1.081       .  S
C904        C958   1.529       .  S
C904        C905   1.427       .  A
C905        C906   1.427       .  A
C905        H909   1.078       .  S
C906        C960   1.529       .  S
C906        C907   1.414       .  A
C907        H910   1.081       .  S
C911       C1007   1.455       .  S
C911        C912   1.403       .  A
C911        C916   1.403       .  A
C912        C913   1.413       .  A
C912        H917   1.081       .  S
C913       C1077   1.528       .  S
C913        C914   1.428       .  A
C914        C915   1.428       .  A
C914        H918   1.078       .  S
C915       C1075   1.528       .  S
C915        C916   1.413       .  A
C916        H919   1.081       .  S
C920       C1004   1.456       .  S
C920        C921   1.403       .  A
C920        C925   1.403       .  A
C921        C922   1.413       .  A
C921        H926   1.081       .  S
C922        C940   1.529       .  S
C922        C923   1.428       .  A
C923        C924   1.428       .  A
C923        H927   1.078       .  S
C924        C942   1.529       .  S
C924        C925   1.413       .  A
C925        H928   1.081       .  S
C929        C999   1.462       .  S
C929        C934   1.405   1_455  A
C930        C931   1.416       .  A
C930        H935   1.081       .  S
C931       C1059   1.531       .  S
C932       C1077   1.428   1_455  A
C932        H936   1.078       .  S
C933       C1057   1.531       .  S
C933       C1076   1.427   1_655  A
C933        C934   1.416       .  A
C934        H937   1.081       .  S
C938        C997   1.456       .  S
C938        C939   1.403       .  A
C939        C940   1.413       .  A
C939        H944   1.081       .  S
C940        C941   1.428       .  A
C941        H945   1.078       .  S
C942        C943   1.413       .  A
C943        H946   1.081       .  S
C947        C996   1.459       .  S
C947        C948   1.405       .  A
C948        C949   1.414       .  A
C948        H953   1.081       .  S
C949        C950   1.428       .  A
C950        H954   1.078       .  S
C951        C952   1.414       .  A
C952        H955   1.081       .  S
C956        C994   1.458   1_655  S
C956        C961   1.404       .  A
C957        C958   1.414       .  A
C957        H962   1.081       .  S
C959        C960   1.427       .  A
C959        H963   1.078       .  S
C960        C961   1.414       .  A
C961        H964   1.081       .  S
O965        C975   1.279       .  A
O965       Cu973   2.034       .  S
O966        C976   1.280   1_655  A
O966       Cu973   2.037       .  S
O967        C977   1.278   1_655  A
O967       Cu973   2.009       .  S
O968        C978   1.278   1_655  A
O968      Cu1117   2.012       .  S
O969      Cu1118   2.012       .  S
O970       Cu974   2.009       .  S
O971       Cu974   2.037       .  S
O972       Cu974   2.034       .  S
Cu973      O1112   2.007       .  S
Cu974      O1113   2.007       .  S
C975        C995   1.454       .  S
C976       C1000   1.457       .  S
C977        C992   1.468       .  S
C978        C991   1.469       .  S
O979       Cu987   2.029       .  S
O980       Cu987   2.031       .  S
O981       Cu987   2.011       .  S
O982       Cu987   2.011       .  S
O983        C992   1.278   1_655  A
O983       Cu988   2.011       .  S
O984        C991   1.278   1_655  A
O984       Cu988   2.011       .  S
O985        C990   1.279   1_655  A
O985       Cu988   2.031       .  S
O986        C989   1.279       .  A
O986       Cu988   2.029       .  S
C989        C998   1.451       .  S
C990        C993   1.452       .  S
C993        C994   1.216       .  T
C997        C998   1.215       .  T
C999       C1000   1.219       .  T
C1001      C1002   1.216       .  T
C1003      C1004   1.215       .  T
C1005      C1006   1.217       .  T
C1007      C1008   1.214       .  T
O1009      C1019   1.278       .  A
O1010      C1020   1.277       .  A
O1010     Cu1017   2.007       .  S
O1011     Cu1017   2.034       .  S
O1012      C1022   1.280       .  A
O1012     Cu1017   2.037   1_565  S
O1013      C1022   1.280       .  A
O1014      C1021   1.279       .  A
O1014     Cu1018   2.032   1_546  S
O1015      C1020   1.277       .  A
O1016      C1019   1.278       .  A
O1016     Cu1018   2.011   1_556  S
C1019      C1034   1.469       .  S
C1020      C1033   1.465       .  S
C1021      C1150   1.453       .  S
C1022      C1152   1.457       .  S
O1023      C1033   1.277       .  A
O1023     Cu1031   2.006   1_545  S
O1024      C1034   1.278       .  A
O1024     Cu1031   2.011       .  S
O1025      C1035   1.279       .  A
O1025     Cu1031   2.030   1_545  S
O1026      C1036   1.280       .  A
O1026     Cu1031   2.037       .  S
O1027      C1036   1.280       .  A
O1027     Cu1032   2.037       .  S
O1028      C1035   1.279       .  A
O1028     Cu1032   2.030   1_545  S
O1029      C1034   1.278       .  A
O1029     Cu1032   2.011       .  S
O1030      C1033   1.277       .  A
O1030     Cu1032   2.006   1_545  S
Cu1031    Cu1032   2.374       .  S
C1035      C1145   1.451       .  S
C1036      C1147   1.457       .  S
C1037      C1149   1.458       .  S
C1037      C1038   1.404       .  A
C1037      C1042   1.404       .  A
C1038      C1039   1.414       .  A
C1038      H1043   1.081       .  S
C1039      C1095   1.530       .  S
C1039      C1040   1.427       .  A
C1040      C1041   1.427       .  A
C1040      H1044   1.078       .  S
C1041      C1093   1.530       .  S
C1041      C1042   1.414       .  A
C1042      H1045   1.081       .  S
C1046      C1146   1.456       .  S
C1046      C1047   1.403       .  A
C1046      C1051   1.403       .  A
C1047      C1048   1.414       .  A
C1047      H1052   1.081       .  S
C1048      C1102   1.529       .  S
C1048      C1049   1.427       .  A
C1049      C1050   1.427       .  A
C1049      H1053   1.077       .  S
C1050      C1104   1.529       .  S
C1050      C1051   1.414       .  A
C1051      H1054   1.081       .  S
C1055      C1151   1.462       .  S
C1055      C1056   1.405       .  A
C1055      C1060   1.405       .  A
C1056      C1057   1.416       .  A
C1056      H1061   1.081       .  S
C1057      C1058   1.427       .  A
C1058      C1059   1.427       .  A
C1058      H1062   1.077       .  S
C1059      C1060   1.416       .  A
C1060      H1063   1.081       .  S
C1064      C1148   1.462       .  S
C1064      C1065   1.406       .  A
C1064      C1069   1.406       .  A
C1065      C1066   1.415       .  A
C1065      H1070   1.081       .  S
C1066      C1084   1.531       .  S
C1066      C1067   1.428       .  A
C1067      C1068   1.428       .  A
C1067      H1071   1.078       .  S
C1068      C1086   1.531       .  S
C1068      C1069   1.415       .  A
C1069      H1072   1.081       .  S
C1073      C1143   1.455       .  S
C1073      C1078   1.403   1_455  A
C1074      C1075   1.413       .  A
C1074      H1079   1.081       .  S
C1076      H1080   1.077       .  S
C1077      C1078   1.413       .  A
C1078      H1081   1.081       .  S
C1082      C1141   1.462       .  S
C1082      C1083   1.406       .  A
C1083      C1084   1.415       .  A
C1083      H1088   1.081       .  S
C1084      C1085   1.428       .  A
C1085      H1089   1.078       .  S
C1086      C1087   1.415       .  A
C1087      H1090   1.081       .  S
C1091      C1140   1.458       .  S
C1091      C1092   1.404       .  A
C1092      C1093   1.414       .  A
C1092      H1097   1.081       .  S
C1093      C1094   1.427       .  A
C1094      H1098   1.078       .  S
C1095      C1096   1.414       .  A
C1096      H1099   1.081       .  S
C1100      C1138   1.456       .  S
C1100      C1105   1.403       .  A
C1101      C1102   1.414       .  A
C1101      H1106   1.081       .  S
C1103      C1104   1.427       .  A
C1103      H1107   1.077       .  S
C1104      C1105   1.414       .  A
C1105      H1108   1.081       .  S
O1109      C1119   1.279       .  A
O1109     Cu1117   2.032   1_556  S
O1110      C1120   1.279   1_655  A
O1110     Cu1117   2.028       .  S
O1111      C1121   1.278   1_655  A
O1111     Cu1117   2.011   1_556  S
O1112      C1122   1.277   1_655  A
O1114     Cu1118   2.011   1_556  S
O1115     Cu1118   2.028       .  S
O1116     Cu1118   2.032   1_556  S
C1119      C1139   1.453       .  S
C1120      C1144   1.450       .  S
C1121      C1136   1.469       .  S
C1122      C1135   1.465       .  S
O1123     Cu1131   2.037       .  S
O1124     Cu1131   2.030       .  S
O1125     Cu1131   2.006       .  S
O1126     Cu1131   2.011       .  S
O1127      C1136   1.278   1_655  A
O1127     Cu1132   2.011       .  S
O1128      C1135   1.277   1_655  A
O1128     Cu1132   2.006       .  S
O1129      C1134   1.279   1_655  A
O1129     Cu1132   2.030       .  S
O1130      C1133   1.280       .  A
O1130     Cu1132   2.037       .  S
C1133      C1142   1.457       .  S
C1134      C1137   1.451   1_455  S
C1137      C1138   1.215       .  T
C1141      C1142   1.219       .  T
C1143      C1144   1.214       .  T
C1145      C1146   1.215       .  T
C1147      C1148   1.219       .  T
C1149      C1150   1.216       .  T
C1151      C1152   1.219       .  T
