geometry optimzed in LAMMPS
_audit_creation_date              2020-12-01 
_audit_creation_method            'lammps2cif' 
_symmetry_space_group_name_H-M    'P1' 
_symmetry_Int_Tables_number       1 
_symmetry_cell_setting            triclinic 
loop_ 
_symmetry_equiv_pos_as_xyz 
  x,y,z 
_cell_length_a                    34.45124446 
_cell_length_b                    34.95100617957477 
_cell_length_c                    26.149955724126386 
_cell_angle_alpha                 89.46612814194586 
_cell_angle_beta                  89.58866673985368 
_cell_angle_gamma                 90.02493411111458 
loop_ 
_atom_site_label 
_atom_site_type_symbol 
_atom_site_fract_x 
_atom_site_fract_y 
_atom_site_fract_z 
_atom_site_charge 
C1          C  0.61479260  0.32644689  0.50449400     0.80700
N2          N  0.58815205  0.35487899  0.00335935    -0.77600
C3          C  0.59906986  0.39205621  0.00205024     0.83100
N4          N  0.63741678  0.40096810  0.00189698    -0.77600
C5          C  0.66465355  0.37271047  0.50297373     0.83200
N6          N  0.65322071  0.33538327  0.50422281    -0.79300
C7          C  0.89766053  0.82871362  0.24873931     0.80700
N8          N  0.85965787  0.83993951  0.24829181    -0.77600
C9          C  0.85084712  0.87809835  0.24921929     0.83100
N10         N  0.87996817  0.90428777  0.25063482    -0.77600
C11         C  0.91756042  0.89318376  0.25115897     0.83200
N12         N  0.92607581  0.85553232  0.25016124    -0.79300
C13         C  0.33932307  0.60913265  0.99766393     0.80700
N14         N  0.34652524  0.64751896  0.99919685    -0.77600
C15         C  0.38392711  0.66039027  0.99988469     0.83100
N16         N  0.41363261  0.63481795  0.99906934    -0.77600
C17         C  0.40663366  0.59680590  0.99746088     0.83200
N18         N  0.36949344  0.58421345  0.99676841    -0.79300
O19         O  0.52165641  0.01857551  0.17615327    -0.74000
O20         O  0.52190791  0.01891972  0.32236190    -0.74000
O21         O  0.57412254  0.99889007  0.24886178    -0.74000
O22         O  0.46923680  0.03754811  0.24958229    -0.74100
O23         O  0.44733756  0.97747210  0.25100140    -0.74000
O24         O  0.55098979  0.93927260  0.25000497    -0.74000
O25         O  0.49942990  0.95896659  0.32385349    -0.74000
O26         O  0.49899682  0.95868477  0.17712886    -0.74000
Ni27       Ni  0.52258193  0.02065911  0.24919851     1.25400
Ni28       Ni  0.49840702  0.95650269  0.25054342     1.25400
C29         C  0.51021809  0.98871227  0.15275277     0.88200
C30         C  0.51060669  0.98912888  0.34700352     0.88200
C31         C  0.57965052  0.96252980  0.24923357     0.88200
C32         C  0.44102788  0.01352283  0.25045649     0.88400
O33         O  0.56061111  0.02963111  0.99933639    -0.74000
O34         O  0.52107114  0.92752216  0.00031732    -0.74000
O35         O  0.54095552  0.97856354  0.42657846    -0.74000
O36         O  0.54067983  0.97818313  0.07296460    -0.74100
O37         O  0.47990557  0.00042841  0.07329501    -0.74000
O38         O  0.48029921  0.00110860  0.42671177    -0.74000
O39         O  0.46028181  0.94951732  0.00034281    -0.74000
O40         O  0.50004648  0.05220138  0.49986797    -0.74000
Ni41       Ni  0.54296517  0.97770263  0.99976709     1.25400
Ni42       Ni  0.47794378  0.00168975  0.00002686     1.25400
C43         C  0.53685668  0.05776768  0.99974595     0.88200
C44         C  0.48438788  0.92160757  0.00059350     0.88200
C45         C  0.51059615  0.98961019  0.40275141     0.88200
C46         C  0.51020287  0.98901119  0.09701886     0.88400
C47         C  0.17655535  0.11457063  0.25091181     0.80700
N48         N  0.16677927  0.15226706  0.25075462    -0.77600
C49         C  0.12887042  0.16291463  0.25139342     0.83100
N50         N  0.10081680  0.13565963  0.25210389    -0.77600
C51         C  0.11017067  0.09800852  0.25220322     0.83200
N52         N  0.14812311  0.08753361  0.25164244    -0.79300
O53         O  0.98943016  0.42918046  0.25008871    -0.74000
O54         O  0.94976819  0.53103601  0.24841628    -0.74000
O55         O  0.96990573  0.48001271  0.17584984    -0.74000
O56         O  0.97006960  0.48059200  0.32260736    -0.74100
O57         O  0.03075994  0.50310951  0.32123210    -0.74000
O58         O  0.03057915  0.50257617  0.17505513    -0.74000
O59         O  0.01024951  0.55390053  0.24735515    -0.74000
O60         O  0.05023693  0.45116209  0.24894771    -0.74000
Ni61       Ni  0.96766671  0.47935955  0.24927941     1.25400
Ni62       Ni  0.03265241  0.50350134  0.24810411     1.25400
C63         C  0.02606680  0.42322191  0.24986650     0.88200
C64         C  0.97337774  0.55925517  0.24757583     0.88200
C65         C  0.00024028  0.49146776  0.15155689     0.88200
C66         C  0.00049090  0.49209621  0.34580619     0.88400
O67         O  0.01206855  0.46218718  0.07198719    -0.74000
O68         O  0.01236957  0.46260554  0.42569668    -0.74000
O69         O  0.06472454  0.48235603  0.99841616    -0.74000
O70         O  0.95970688  0.44351152  0.49924374    -0.74100
O71         O  0.93798078  0.50362778  0.99867340    -0.74000
O72         O  0.04143406  0.54188649  0.49825789    -0.74000
O73         O  0.98991804  0.52254864  0.42515037    -0.74000
O74         O  0.98938747  0.52204458  0.07182741    -0.74000
Ni75       Ni  0.01310422  0.46047741  0.99884855     1.25400
Ni76       Ni  0.98893166  0.52460949  0.99847346     1.25400
C77         C  0.00044147  0.49189175  0.09580457     0.88200
C78         C  0.00088853  0.49244923  0.40153669     0.88200
C79         C  0.07015411  0.51874705  0.99827055     0.88200
C80         C  0.93157249  0.46760266  0.99895888     0.88400
C81         C  0.04578898  0.31547372  0.25220942     0.16400
C82         C  0.04258884  0.27562241  0.25300285    -0.32600
C83         C  0.07695474  0.25437671  0.25219342     0.20800
C84         C  0.11308188  0.27185743  0.25077116     0.03000
C85         C  0.11631670  0.31192242  0.25002983    -0.22300
C86         C  0.08177405  0.33329484  0.25073394     0.12200
S87         S  0.00728587  0.34588527  0.25265237    -0.06000
C88         C  0.03974680  0.38334830  0.25071833    -0.09500
C89         C  0.07850423  0.37248015  0.24990774    -0.26100
S90         S  0.15117562  0.24047740  0.24989242    -0.03300
C91         C  0.11786140  0.20361330  0.25138298    -0.16700
C92         C  0.07949003  0.21539330  0.25254274    -0.14700
H93         H  0.01447267  0.26175159  0.25407527     0.20600
H94         H  0.14442588  0.32578114  0.24883805     0.16700
H95         H  0.10283924  0.39209171  0.24863320     0.19200
H96         H  0.05462540  0.19641268  0.25355417     0.12600
C97         C  0.28691873  0.09830719  0.24907080     0.16400
C98         C  0.32752574  0.10162161  0.24795445    -0.32600
C99         C  0.34933591  0.06771222  0.24959963     0.20800
C100        C  0.33141442  0.03219029  0.25222311     0.03000
C101        C  0.29093653  0.02889148  0.25331212    -0.22300
C102        C  0.26920989  0.06270026  0.25165607     0.12200
S103        S  0.25516678  0.13582081  0.24757690    -0.06000
C104        C  0.21769967  0.10310080  0.25042823    -0.09500
C105        C  0.22957186  0.06523991  0.25239029    -0.26100
S106        S  0.36257897  0.99445038  0.25381066    -0.03300
C107        C  0.40042413  0.02667009  0.25088601    -0.16700
C108        C  0.38911053  0.06474965  0.24885320    -0.14700
H109        H  0.34147789  0.12936827  0.24591362     0.20600
H110        H  0.27697481  0.00114155  0.25535311     0.16700
H111        H  0.21023785  0.04081453  0.25438013     0.19200
H112        H  0.40883341  0.08885734  0.24682358     0.12600
C113        C  0.46439645  0.81411800  0.00284617     0.16400
C114        C  0.46774697  0.77437275  0.00344839    -0.32600
C115        C  0.43352926  0.75297033  0.00293312     0.20800
C116        C  0.39725521  0.77005892  0.00205872     0.03000
C117        C  0.39382683  0.81018373  0.00167095    -0.22300
C118        C  0.42835253  0.83178362  0.00198608     0.12200
S119        S  0.50292476  0.84446615  0.00264970    -0.06000
C120        C  0.47051299  0.88183468  0.00135867    -0.09500
C121        C  0.43168218  0.87099268  0.50118190    -0.26100
S122        S  0.35950322  0.73800135  0.50088775    -0.03300
C123        C  0.39335801  0.70156698  0.00139536    -0.16700
C124        C  0.43148623  0.71407050  0.00265205    -0.14700
H125        H  0.49593011  0.76065743  0.00396925     0.20600
H126        H  0.36566332  0.82389457  0.00084493     0.16700
H127        H  0.40738360  0.89062218  0.50036657     0.19200
H128        H  0.45671950  0.69558700  0.00298219     0.12600
C129        C  0.24318107  0.55344207  0.99692293     0.16400
C130        C  0.21443549  0.52503506  0.99658750    -0.32600
C131        C  0.17559213  0.53688386  0.99740429     0.20800
C132        C  0.16588191  0.57537870  0.99846588     0.03000
C133        C  0.19467013  0.60382714  0.99884379    -0.22300
C134        C  0.23356444  0.59196013  0.99806010     0.12200
S135        S  0.29174376  0.54467028  0.99609827    -0.06000
C136        C  0.29953425  0.59343296  0.99735339    -0.09500
C137        C  0.26584838  0.61517109  0.99832859    -0.26100
S138        S  0.11717428  0.58390256  0.49923339    -0.03300
C139        C  0.10966485  0.53508514  0.99817860    -0.16700
C140        C  0.14345579  0.51356139  0.99726822    -0.14700
H141        H  0.22204698  0.49498335  0.99573865     0.20600
H142        H  0.18706402  0.63387677  0.99971464     0.16700
H143        H  0.26500293  0.64612998  0.49924850     0.19200
H144        H  0.14447444  0.48260162  0.99650892     0.12600
C145        C  0.00892796  0.95582140  0.25280388     0.16400
C146        C  0.04683583  0.97039058  0.25260867    -0.32600
C147        C  0.05127528  0.01026714  0.25294078     0.20800
C148        C  0.01940355  0.03449897  0.25353876     0.03000
C149        C  0.98155186  0.01994110  0.25380815    -0.22300
C150        C  0.97711910  0.98013022  0.25337438     0.12200
S151        S  0.99730684  0.90840088  0.25199944    -0.06000
C152        C  0.94906551  0.92152463  0.25230109    -0.09500
C153        C  0.94267451  0.96062943  0.25313329    -0.26100
S154        S  0.03074841  0.08192939  0.25362709    -0.03300
C155        C  0.07905303  0.06913191  0.25280828    -0.16700
C156        C  0.08567695  0.02999732  0.25253698    -0.14700
H157        H  0.07173936  0.95150166  0.25205701     0.20600
H158        H  0.95664288  0.03882866  0.25417072     0.16700
H159        H  0.91436489  0.97409218  0.25330760     0.19200
H160        H  0.11406816  0.01671386  0.25195256     0.12600
C161        C  0.67629474  0.90729127  0.24844321     0.16400
C162        C  0.70573634  0.87944565  0.24857854    -0.32600
C163        C  0.74441591  0.89218716  0.24821915     0.20800
C164        C  0.75311061  0.93094336  0.24767078     0.03000
C165        C  0.72377058  0.95868535  0.24742289    -0.22300
C166        C  0.68522928  0.94598785  0.24787288     0.12200
S167        S  0.62767881  0.89786930  0.24917587    -0.06000
C168        C  0.61930612  0.94657907  0.24876076    -0.09500
C169        C  0.65270501  0.96868697  0.24802164    -0.26100
S170        S  0.80137828  0.94097048  0.24767509    -0.03300
C171        C  0.81048544  0.89242321  0.24846411    -0.16700
C172        C  0.77734071  0.86977624  0.24860755    -0.14700
H173        H  0.69878489  0.84922522  0.24909663     0.20600
H174        H  0.73072261  0.98891304  0.24706409     0.16700
H175        H  0.65319214  0.99967390  0.24770965     0.19200
H176        H  0.77730950  0.83879359  0.24918574     0.12600
C177        C  0.94626830  0.73027454  0.24620636     0.16400
C178        C  0.97325398  0.70047376  0.24584862    -0.32600
C179        C  0.95897213  0.66310666  0.24607686     0.20800
C180        C  0.91944892  0.65555685  0.24648341     0.03000
C181        C  0.89223854  0.68557806  0.24669748    -0.22300
C182        C  0.90663053  0.72324219  0.24662657     0.12200
S183        S  0.95857832  0.77718692  0.24663797    -0.06000
C184        C  0.90981756  0.78824177  0.24749728    -0.09500
C185        C  0.88531038  0.75664527  0.24730202    -0.26100
S186        S  0.90845408  0.60786901  0.24708818    -0.03300
C187        C  0.95765225  0.59837068  0.24689063    -0.16700
C188        C  0.98097945  0.63055625  0.24626533    -0.14700
H189        H  0.00415203  0.70620852  0.24565043     0.20600
H190        H  0.86135429  0.67983646  0.24713786     0.16700
H191        H  0.85391768  0.75801082  0.24789017     0.19200
H192        H  0.01241505  0.63019708  0.24614229     0.12600
C193        C  0.49919253  0.53545604  0.99910416     0.16400
C194        C  0.53713841  0.52085549  0.00126834    -0.32600
C195        C  0.54162182  0.48091184  0.00000006     0.20800
C196        C  0.50973394  0.45683149  0.99667536     0.03000
C197        C  0.47204279  0.47136950  0.99437767    -0.22300
C198        C  0.46758073  0.51106266  0.99573511     0.12200
S199        S  0.48703879  0.58285633  0.00075280    -0.06000
C200        C  0.43895510  0.56932464  0.99704906    -0.09500
C201        C  0.43308952  0.53023751  0.49448110    -0.26100
S202        S  0.52059842  0.40945061  0.49608029    -0.03300
C203        C  0.56885371  0.42176452  0.00030787    -0.16700
C204        C  0.57588746  0.46085453  0.00200959    -0.14700
H205        H  0.56196118  0.53971627  0.00402540     0.20600
H206        H  0.44719643  0.45249752  0.49188809     0.16700
H207        H  0.40499150  0.51646925  0.49214485     0.19200
H208        H  0.60434336  0.47380427  0.00480088     0.12600
C209        C  0.77569142  0.38555230  0.50247403     0.16400
C210        C  0.81625562  0.38128278  0.50298993    -0.32600
C211        C  0.83893770  0.41470778  0.50080801     0.20800
C212        C  0.82183705  0.45059618  0.49819246     0.03000
C213        C  0.78150607  0.45482239  0.49762208    -0.22300
C214        C  0.75895743  0.42157882  0.49986643     0.12200
S215        S  0.74277315  0.34891259  0.50493782    -0.06000
C216        C  0.70625429  0.38266934  0.00247694    -0.09500
C217        C  0.71930284  0.42013142  0.99987667    -0.26100
S218        S  0.85370383  0.48769966  0.99612040    -0.03300
C219        C  0.89086110  0.45481260  0.99885460    -0.16700
C220        C  0.87881176  0.41691485  0.50112849    -0.14500
H221        H  0.82950602  0.35322947  0.50508476     0.20600
H222        H  0.76824784  0.48288832  0.99562855     0.16700
H223        H  0.70074247  0.44510966  0.99804755     0.19200
H224        H  0.89805802  0.39247033  0.50312480     0.12600
C225        C  0.59032364  0.15424345  0.50121498     0.16400
C226        C  0.61757765  0.18411718  0.50097968    -0.32600
C227        C  0.60338800  0.22169068  0.50358742     0.20800
C228        C  0.56386438  0.22902286  0.50644011     0.03000
C229        C  0.53671286  0.19924654  0.50680563    -0.22300
C230        C  0.55085432  0.16180246  0.50401381     0.12200
S231        S  0.60139402  0.10670999  0.49806557    -0.06000
C232        C  0.55230217  0.09703510  0.00040236    -0.09500
C233        C  0.52889913  0.12914794  0.00352348    -0.26100
S234        S  0.55217737  0.27622432  0.00863931    -0.03300
C235        C  0.60106907  0.28655561  0.00554884    -0.16700
C236        C  0.62503134  0.25472538  0.50318524    -0.14700
H237        H  0.64840995  0.17833751  0.49865017     0.20600
H238        H  0.50586888  0.20503934  0.00890145     0.16700
H239        H  0.49749221  0.12864520  0.00546417     0.19200
H240        H  0.65640675  0.25569975  0.50078132     0.12600
C241        C  0.61479265  0.32644691  0.00449380     0.80700
N242        N  0.58815198  0.35487897  0.50335931    -0.77600
C243        C  0.59906979  0.39205618  0.50205012     0.83100
N244        N  0.63741669  0.40096809  0.50189684    -0.77600
C245        C  0.66465363  0.37271049  0.00297377     0.83200
N246        N  0.65322078  0.33538327  0.00422259    -0.79300
C247        C  0.89766052  0.82871362  0.74873936     0.80700
N248        N  0.85965784  0.83993948  0.74829200    -0.77600
C249        C  0.85084710  0.87809833  0.74921947     0.83100
N250        N  0.87996816  0.90428774  0.75063486    -0.77600
C251        C  0.91756041  0.89318376  0.75115917     0.83200
N252        N  0.92607580  0.85553231  0.75016145    -0.79300
C253        C  0.33932307  0.60913264  0.49766369     0.80700
N254        N  0.34652521  0.64751893  0.49919669    -0.77600
C255        C  0.38392705  0.66039026  0.49988465     0.83100
N256        N  0.41363258  0.63481797  0.49906918    -0.77600
C257        C  0.40663363  0.59680591  0.49746064     0.83200
N258        N  0.36949344  0.58421345  0.49676815    -0.79300
O259        O  0.52165656  0.01857550  0.67615320    -0.74000
O260        O  0.52190779  0.01891976  0.82236185    -0.74000
O261        O  0.57412262  0.99889009  0.74886193    -0.74000
O262        O  0.46923683  0.03754804  0.74958212    -0.74100
O263        O  0.44733749  0.97747204  0.75100130    -0.74000
O264        O  0.55098982  0.93927264  0.75000483    -0.74000
O265        O  0.49942990  0.95896658  0.82385343    -0.74000
O266        O  0.49899685  0.95868480  0.67712878    -0.74000
Ni267      Ni  0.52258198  0.02065909  0.74919847     1.25400
Ni268      Ni  0.49840701  0.95650268  0.75054333     1.25400
C269        C  0.51021818  0.98871228  0.65275269     0.88200
C270        C  0.51060660  0.98912891  0.84700348     0.88200
C271        C  0.57965057  0.96252982  0.74923355     0.88200
C272        C  0.44102787  0.01352279  0.75045636     0.88400
O273        O  0.56061121  0.02963110  0.49933630    -0.74000
O274        O  0.52107115  0.92752217  0.50031727    -0.74000
O275        O  0.54095549  0.97856357  0.92657843    -0.74000
O276        O  0.54067985  0.97818305  0.57296457    -0.74100
O277        O  0.47990559  0.00042837  0.57329496    -0.74000
O278        O  0.48029921  0.00110857  0.92671186    -0.74000
O279        O  0.46028179  0.94951731  0.50034267    -0.74000
O280        O  0.50004642  0.05220140  0.99986789    -0.74000
Ni281      Ni  0.54296522  0.97770260  0.49976706     1.25400
Ni282      Ni  0.47794376  0.00168975  0.50002679     1.25400
C283        C  0.53685674  0.05776767  0.49974600     0.88200
C284        C  0.48438788  0.92160757  0.50059340     0.88200
C285        C  0.51059612  0.98961021  0.90275142     0.88200
C286        C  0.51020291  0.98901117  0.59701881     0.88400
C287        C  0.17655533  0.11457063  0.75091186     0.80700
N288        N  0.16677920  0.15226707  0.75075467    -0.77600
C289        C  0.12887035  0.16291461  0.75139348     0.83100
N290        N  0.10081676  0.13565960  0.75210386    -0.77600
C291        C  0.11017067  0.09800849  0.75220310     0.83200
N292        N  0.14812311  0.08753361  0.75164241    -0.79300
O293        O  0.98943006  0.42918043  0.75008863    -0.74000
O294        O  0.94976826  0.53103606  0.74841621    -0.74000
O295        O  0.96990568  0.48001276  0.67584987    -0.74000
O296        O  0.97006960  0.48059200  0.82260734    -0.74100
O297        O  0.03075996  0.50310958  0.82123207    -0.74000
O298        O  0.03057921  0.50257603  0.67505511    -0.74000
O299        O  0.01024963  0.55390054  0.74735501    -0.74000
O300        O  0.05023684  0.45116208  0.74894767    -0.74000
Ni301      Ni  0.96766667  0.47935957  0.74927939     1.25400
Ni302      Ni  0.03265244  0.50350132  0.74810405     1.25400
C303        C  0.02606672  0.42322189  0.74986648     0.88200
C304        C  0.97337785  0.55925520  0.74757571     0.88200
C305        C  0.00024025  0.49146775  0.65155692     0.88200
C306        C  0.00049091  0.49209623  0.84580616     0.88400
O307        O  0.01206862  0.46218719  0.57198728    -0.74000
O308        O  0.01236953  0.46260545  0.92569663    -0.74000
O309        O  0.06472460  0.48235602  0.49841600    -0.74000
O310        O  0.95970689  0.44351151  0.99924362    -0.74100
O311        O  0.93798072  0.50362779  0.49867349    -0.74000
O312        O  0.04143405  0.54188651  0.99825787    -0.74000
O313        O  0.98991812  0.52254860  0.92515038    -0.74000
O314        O  0.98938747  0.52204457  0.57182745    -0.74000
Ni315      Ni  0.01310425  0.46047742  0.49884860     1.25400
Ni316      Ni  0.98893164  0.52460950  0.49847348     1.25400
C317        C  0.00044144  0.49189174  0.59580462     0.88200
C318        C  0.00088854  0.49244918  0.90153666     0.88200
C319        C  0.07015414  0.51874703  0.49827048     0.88200
C320        C  0.93157244  0.46760266  0.49895892     0.88400
C321        C  0.04578903  0.31547374  0.75220929     0.16400
C322        C  0.04258877  0.27562242  0.75300277    -0.32600
C323        C  0.07695468  0.25437672  0.75219336     0.20800
C324        C  0.11308182  0.27185741  0.75077109     0.03000
C325        C  0.11631674  0.31192239  0.75002972    -0.22300
C326        C  0.08177410  0.33329484  0.75073382     0.12200
S327        S  0.00728594  0.34588528  0.75265229    -0.06000
C328        C  0.03974682  0.38334830  0.75071842    -0.09500
C329        C  0.07850431  0.37248018  0.74990773    -0.26100
S330        S  0.15117552  0.24047738  0.74989263    -0.03300
C331        C  0.11786129  0.20361329  0.75138304    -0.16700
C332        C  0.07948989  0.21539329  0.75254284    -0.14700
H333        H  0.01447265  0.26175171  0.75407529     0.20600
H334        H  0.14442595  0.32578103  0.74883799     0.16700
H335        H  0.10283929  0.39209163  0.74863318     0.19200
H336        H  0.05462529  0.19641275  0.75355438     0.12600
C337        C  0.28691873  0.09830719  0.74907075     0.16400
C338        C  0.32752574  0.10162161  0.74795464    -0.32600
C339        C  0.34933591  0.06771223  0.74959985     0.20800
C340        C  0.33141443  0.03219030  0.75222339     0.03000
C341        C  0.29093653  0.02889151  0.75331231    -0.22300
C342        C  0.26920988  0.06270026  0.75165609     0.12200
S343        S  0.25516679  0.13582082  0.74757678    -0.06000
C344        C  0.21769967  0.10310082  0.75042822    -0.09500
C345        C  0.22957185  0.06523992  0.75239042    -0.26100
S346        S  0.36257901  0.99445041  0.75381091    -0.03300
C347        C  0.40042414  0.02667011  0.75088594    -0.16700
C348        C  0.38911053  0.06474968  0.74885315    -0.14700
H349        H  0.34147785  0.12936828  0.74591388     0.20600
H350        H  0.27697477  0.00114153  0.75535336     0.16700
H351        H  0.21023781  0.04081456  0.75438055     0.19200
H352        H  0.40883338  0.08885736  0.74682338     0.12600
C353        C  0.46439642  0.81411797  0.50284605     0.16400
C354        C  0.46774686  0.77437273  0.50344827    -0.32600
C355        C  0.43352916  0.75297030  0.50293309     0.20800
C356        C  0.39725511  0.77005890  0.50205880     0.03000
C357        C  0.39382674  0.81018373  0.50167091    -0.22300
C358        C  0.42835250  0.83178360  0.50198597     0.12200
S359        S  0.50292477  0.84446612  0.50264958    -0.06000
C360        C  0.47051301  0.88183467  0.50135855    -0.09500
C361        C  0.43168218  0.87099270  0.00118198    -0.26100
S362        S  0.35950335  0.73800136  0.00088780    -0.03300
C363        C  0.39335790  0.70156696  0.50139549    -0.16700
C364        C  0.43148610  0.71407050  0.50265201    -0.14700
H365        H  0.49593008  0.76065730  0.50396909     0.20600
H366        H  0.36566331  0.82389448  0.50084481     0.16700
H367        H  0.40738355  0.89062219  0.00036656     0.19200
H368        H  0.45671945  0.69558698  0.50298203     0.12600
C369        C  0.24318111  0.55344203  0.49692301     0.16400
C370        C  0.21443551  0.52503505  0.49658754    -0.32600
C371        C  0.17559214  0.53688384  0.49740425     0.20800
C372        C  0.16588190  0.57537868  0.49846591     0.03000
C373        C  0.19467014  0.60382710  0.49884387    -0.22300
C374        C  0.23356446  0.59196009  0.49806023     0.12200
S375        S  0.29174384  0.54467027  0.49609805    -0.06000
C376        C  0.29953428  0.59343294  0.49735338    -0.09500
C377        C  0.26584840  0.61517106  0.49832867    -0.26100
S378        S  0.11717430  0.58390258  0.99923328    -0.03300
C379        C  0.10966485  0.53508512  0.49817863    -0.16700
C380        C  0.14345580  0.51356137  0.49726826    -0.14700
H381        H  0.22204695  0.49498330  0.49573873     0.20600
H382        H  0.18706407  0.63387674  0.49971469     0.16700
H383        H  0.26500290  0.64613001  0.99924851     0.19200
H384        H  0.14447446  0.48260160  0.49650902     0.12600
C385        C  0.00892794  0.95582141  0.75280409     0.16400
C386        C  0.04683584  0.97039054  0.75260867    -0.32600
C387        C  0.05127532  0.01026710  0.75294066     0.20800
C388        C  0.01940360  0.03449896  0.75353870     0.03000
C389        C  0.98155187  0.01994112  0.75380831    -0.22300
C390        C  0.97711908  0.98013023  0.75337465     0.12200
S391        S  0.99730684  0.90840088  0.75199971    -0.06000
C392        C  0.94906549  0.92152461  0.75230137    -0.09500
C393        C  0.94267443  0.96062944  0.75313357    -0.26100
S394        S  0.03074849  0.08192938  0.75362698    -0.03300
C395        C  0.07905308  0.06913187  0.75280814    -0.16700
C396        C  0.08567699  0.02999729  0.75253685    -0.14700
H397        H  0.07173925  0.95150162  0.75205698     0.20600
H398        H  0.95664288  0.03882870  0.75417092     0.16700
H399        H  0.91436488  0.97409211  0.75330786     0.19200
H400        H  0.11406825  0.01671385  0.75195246     0.12600
C401        C  0.67629475  0.90729131  0.74844309     0.16400
C402        C  0.70573630  0.87944567  0.74857845    -0.32600
C403        C  0.74441588  0.89218717  0.74821912     0.20800
C404        C  0.75311061  0.93094338  0.74767084     0.03000
C405        C  0.72377060  0.95868538  0.74742285    -0.22300
C406        C  0.68522930  0.94598789  0.74787284     0.12200
S407        S  0.62767885  0.89786932  0.74917575    -0.06000
C408        C  0.61930617  0.94657909  0.74876073    -0.09500
C409        C  0.65270506  0.96868700  0.74802173    -0.26100
S410        S  0.80137830  0.94097046  0.74767504    -0.03300
C411        C  0.81048541  0.89242320  0.74846426    -0.16700
C412        C  0.77734065  0.86977625  0.74860752    -0.14700
H413        H  0.69878480  0.84922526  0.74909657     0.20600
H414        H  0.73072261  0.98891306  0.74706400     0.16700
H415        H  0.65319221  0.99967394  0.74770988     0.19200
H416        H  0.77730939  0.83879360  0.74918559     0.12600
C417        C  0.94626834  0.73027455  0.74620637     0.16400
C418        C  0.97325405  0.70047379  0.74584880    -0.32600
C419        C  0.95897222  0.66310668  0.74607698     0.20800
C420        C  0.91944902  0.65555686  0.74648338     0.03000
C421        C  0.89223861  0.68557806  0.74669740    -0.22300
C422        C  0.90663057  0.72324219  0.74662645     0.12200
S423        S  0.95857829  0.77718694  0.74663819    -0.06000
C424        C  0.90981753  0.78824176  0.74749723    -0.09500
C425        C  0.88531040  0.75664526  0.74730189    -0.26100
S426        S  0.90845419  0.60786902  0.74708806    -0.03300
C427        C  0.95765236  0.59837071  0.74689051    -0.16700
C428        C  0.98097960  0.63055628  0.74626534    -0.14700
H429        H  0.00415208  0.70620861  0.74565069     0.20600
H430        H  0.86135435  0.67983643  0.74713780     0.16700
H431        H  0.85391767  0.75801082  0.74789001     0.19200
H432        H  0.01241510  0.63019711  0.74614232     0.12600
C433        C  0.49919248  0.53545607  0.49910428     0.16400
C434        C  0.53713833  0.52085549  0.50126848    -0.32600
C435        C  0.54162176  0.48091186  0.50000015     0.20800
C436        C  0.50973385  0.45683151  0.49667543     0.03000
C437        C  0.47204273  0.47136957  0.49437779    -0.22300
C438        C  0.46758068  0.51106269  0.49573524     0.12200
S439        S  0.48703873  0.58285635  0.50075272    -0.06000
C440        C  0.43895506  0.56932465  0.49704907    -0.09500
C441        C  0.43308960  0.53023750  0.99448098    -0.26100
S442        S  0.52059854  0.40945059  0.99608020    -0.03300
C443        C  0.56885362  0.42176451  0.50030783    -0.16700
C444        C  0.57588738  0.46085452  0.50200971    -0.14700
H445        H  0.56196118  0.53971631  0.50402560     0.20600
H446        H  0.44719659  0.45249746  0.99188796     0.16700
H447        H  0.40499149  0.51646921  0.99214475     0.19200
H448        H  0.60434325  0.47380424  0.50480117     0.12600
C449        C  0.77569151  0.38555231  0.00247408     0.16400
C450        C  0.81625568  0.38128280  0.00299002    -0.32600
C451        C  0.83893777  0.41470779  0.00080807     0.20800
C452        C  0.82183713  0.45059619  0.99819244     0.03000
C453        C  0.78150617  0.45482240  0.99762197    -0.22300
C454        C  0.75895753  0.42157883  0.99986642     0.12200
S455        S  0.74277325  0.34891259  0.00493793    -0.06000
C456        C  0.70625419  0.38266934  0.50247680    -0.09500
C457        C  0.71930274  0.42013141  0.49987650    -0.26100
S458        S  0.85370373  0.48769964  0.49612015    -0.03300
C459        C  0.89086103  0.45481260  0.49885442    -0.16700
C460        C  0.87881184  0.41691483  0.00112860    -0.14500
H461        H  0.82950609  0.35322943  0.00508493     0.20600
H462        H  0.76824773  0.48288830  0.49562865     0.16700
H463        H  0.70074234  0.44510965  0.49804727     0.19200
H464        H  0.89805803  0.39247033  0.00312478     0.12600
C465        C  0.59032360  0.15424347  0.00121478     0.16400
C466        C  0.61757760  0.18411721  0.00097968    -0.32600
C467        C  0.60338795  0.22169070  0.00358729     0.20800
C468        C  0.56386433  0.22902287  0.00643982     0.03000
C469        C  0.53671281  0.19924654  0.00680535    -0.22300
C470        C  0.55085428  0.16180247  0.00401353     0.12200
S471        S  0.60139397  0.10671000  0.99806543    -0.06000
C472        C  0.55230222  0.09703509  0.50040259    -0.09500
C473        C  0.52889911  0.12914793  0.50352373    -0.26100
S474        S  0.55217733  0.27622429  0.50863959    -0.03300
C475        C  0.60106903  0.28655560  0.50554905    -0.16700
C476        C  0.62503132  0.25472536  0.00318522    -0.14700
H477        H  0.64840991  0.17833759  0.99865045     0.20600
H478        H  0.50586894  0.20503938  0.50890173     0.16700
H479        H  0.49749230  0.12864519  0.50546432     0.19200
H480        H  0.65640676  0.25569966  0.00078153     0.12600
loop_ 
_geom_bond_atom_site_label_1 
_geom_bond_atom_site_label_2 
_geom_bond_distance 
_geom_bond_site_symmetry_2 
_ccdc_geom_bond_type 
C1            N6   1.360       .  A
C1          N242   1.353       .  A
C1          C475   1.472       .  S
N2            C3   1.353       .  A
N2          C241   1.353       .  A
C3            N4   1.357       .  A
C3          C203   1.471       .  S
N4          C245   1.363       .  A
C5            N6   1.363       .  A
C5          N244   1.363       .  A
C5          C456   1.475       .  S
C7            N8   1.367       .  A
C7           N12   1.356       .  A
C7          C184   1.476       .  S
N8            C9   1.368       .  A
C9           N10   1.359       .  A
C9          C171   1.478       .  S
N10          C11   1.352       .  A
C11          N12   1.349       .  A
C11         C152   1.470       .  S
C13          N14   1.365       .  A
C13          N18   1.357       .  A
C13         C136   1.476       .  S
N14          C15   1.365       .  A
C15          N16   1.359       .  A
C15         C123   1.476   1_556  S
N16          C17   1.351       .  A
C17          N18   1.353       .  A
C17         C200   1.471       .  S
O19         Ni27   1.913       .  S
O19          C29   1.278   1_545  A
O20         Ni27   1.914       .  S
O20          C30   1.278   1_545  A
O21         Ni27   1.932   1_565  S
O21          C31   1.285       .  A
O22         Ni27   1.931       .  S
O22          C32   1.284       .  A
O23         Ni28   1.906       .  S
O23          C32   1.279   1_565  A
O24         Ni28   1.909       .  S
O24          C31   1.279       .  A
O25         Ni28   1.920       .  S
O25          C30   1.281       .  A
O26         Ni28   1.921       .  S
O26          C29   1.281       .  A
Ni27        Ni28   2.392   1_545  S
C29          C46   1.457       .  S
C30          C45   1.458       .  S
C31         C168   1.476       .  S
C32         C107   1.473       .  S
O33         Ni41   1.914   1_545  S
O33          C43   1.280       .  A
O34         Ni41   1.909   1_554  S
O34          C44   1.280       .  A
O35        Ni281   1.916       .  S
O35          C45   1.279       .  A
O36         Ni41   1.915   1_554  S
O36          C46   1.279       .  A
O37         Ni42   1.918       .  S
O37          C46   1.280   1_545  A
O38        Ni282   1.919       .  S
O38          C45   1.280   1_545  A
O39         Ni42   1.922   1_565  S
O39          C44   1.281       .  A
O40        Ni282   1.922       .  S
O40         C283   1.283       .  A
Ni41        O275   1.916       .  S
Ni41        Ni42   2.392   1_566  S
Ni42        O278   1.919   1_554  S
Ni42        O280   1.922   1_554  S
C43         C232   1.472   1_556  S
C43         O280   1.283       .  A
C44         C120   1.470       .  S
C47          N48   1.360       .  A
C47          N52   1.361       .  A
C47         C104   1.473       .  S
N48          C49   1.358       .  A
C49          N50   1.357       .  A
C49          C91   1.472       .  S
N50          C51   1.355       .  A
C51          N52   1.358       .  A
C51         C155   1.472       .  S
O53         Ni61   1.908       .  S
O53          C63   1.279   1_655  A
O54         Ni61   1.909       .  S
O54          C64   1.278       .  A
O55         Ni61   1.921       .  S
O55          C65   1.281   1_655  A
O56         Ni61   1.921       .  S
O56          C66   1.281   1_655  A
O57         Ni62   1.913       .  S
O57          C66   1.278       .  A
O58         Ni62   1.913       .  S
O58          C65   1.278       .  A
O59         Ni62   1.923       .  S
O59          C64   1.284   1_455  A
O60         Ni62   1.927       .  S
O60          C63   1.283       .  A
Ni61        Ni62   2.392   1_655  S
C63          C88   1.471       .  S
C64         C187   1.471       .  S
C65          C77   1.458       .  S
C66          C78   1.458       .  S
O67         Ni75   1.914   1_554  S
O67          C77   1.279       .  A
O68        Ni315   1.914       .  S
O68          C78   1.279       .  A
O69         Ni75   1.935       .  S
O69          C79   1.285       .  A
O70        Ni315   1.932   1_655  S
O70         C320   1.284       .  A
O71         Ni76   1.902       .  S
O71          C80   1.278       .  A
O72        Ni316   1.907   1_455  S
O72         C319   1.278       .  A
O73        Ni316   1.919       .  S
O73          C78   1.281   1_655  A
O74         Ni76   1.920   1_554  S
O74          C77   1.281   1_655  A
Ni75        O308   1.914       .  S
Ni75        O310   1.932   1_455  S
Ni75        Ni76   2.391   1_455  S
Ni76        O312   1.907   1_655  S
Ni76        O313   1.919       .  S
C79         C139   1.476       .  S
C79         O312   1.278       .  A
C80         C219   1.472       .  S
C80         O310   1.284       .  A
C81          S87   1.700       .  A
C81          C86   1.387       .  A
C81          C82   1.397       .  A
C82          C83   1.398       .  A
C82          H93   1.083       .  S
C83          C92   1.365       .  A
C83          C84   1.386       .  A
C84          S90   1.711       .  A
C84          C85   1.405       .  A
C85          C86   1.405       .  A
C85          H94   1.083       .  S
C86          C89   1.374       .  A
S87          C88   1.722       .  A
C88          C89   1.388       .  A
C89          H95   1.083       .  S
S90          C91   1.725       .  A
C91          C92   1.385       .  A
C92          H96   1.083       .  S
C97         S103   1.708       .  A
C97         C102   1.387       .  A
C97          C98   1.404       .  A
C98          C99   1.404       .  A
C98         H109   1.083       .  S
C99         C108   1.374       .  A
C99         C100   1.387       .  A
C100        S106   1.702   1_545  A
C100        C101   1.399       .  A
C101        C102   1.400       .  A
C101        H110   1.083       .  S
C102        C105   1.369       .  A
S103        C104   1.725       .  A
C104        C105   1.386       .  A
C105        H111   1.083       .  S
S106        C107   1.723   1_565  A
C107        C108   1.388       .  A
C108        H112   1.083       .  S
C113        S119   1.699       .  A
C113        C118   1.387       .  A
C113        C114   1.394       .  A
C114        C115   1.396       .  A
C114        H125   1.083       .  S
C115        C124   1.361       .  A
C115        C116   1.386       .  A
C116        S362   1.717       .  A
C116        C117   1.407       .  A
C117        C118   1.409       .  A
C117        H126   1.083       .  S
C118        C361   1.375       .  A
S119        C120   1.719       .  A
C120        C361   1.390       .  A
C121        C358   1.375       .  A
C121        C360   1.390       .  A
C121        H127   1.083       .  S
S122        C356   1.717       .  A
S122        C363   1.727       .  A
C123        S362   1.727       .  A
C123        C124   1.385       .  A
C124        H128   1.083       .  S
C129        S135   1.701       .  A
C129        C134   1.387       .  A
C129        C130   1.402       .  A
C130        C131   1.401       .  A
C130        H141   1.083       .  S
C131        C140   1.375       .  A
C131        C132   1.387       .  A
C132        S378   1.704       .  A
C132        C133   1.404       .  A
C133        C134   1.403       .  A
C133        H142   1.083       .  S
C134        C137   1.376       .  A
S135        C136   1.726       .  A
C136        C137   1.388       .  A
C137        H383   1.083       .  S
S138        C372   1.704       .  A
S138        C379   1.726       .  A
C139        S378   1.726       .  A
C139        C140   1.387       .  A
C140        H144   1.083       .  S
H143        C377   1.083       .  S
C145        S151   1.705   1_455  A
C145        C150   1.387   1_455  A
C145        C146   1.401       .  A
C146        C147   1.402   1_565  A
C146        H157   1.083       .  S
C147        C156   1.371       .  A
C147        C148   1.387       .  A
C148        S154   1.703       .  A
C148        C149   1.400   1_455  A
C149        C150   1.400   1_545  A
C149        H158   1.083       .  S
C150        C153   1.368       .  A
S151        C152   1.724       .  A
C152        C153   1.385       .  A
C153        H159   1.083       .  S
S154        C155   1.723       .  A
C155        C156   1.387       .  A
C156        H160   1.083       .  S
C161        S167   1.707       .  A
C161        C166   1.387       .  A
C161        C162   1.406       .  A
C162        C163   1.405       .  A
C162        H173   1.083       .  S
C163        C172   1.379       .  A
C163        C164   1.387       .  A
C164        S170   1.699       .  A
C164        C165   1.401       .  A
C165        C166   1.400       .  A
C165        H174   1.083       .  S
C166        C169   1.373       .  A
S167        C168   1.727       .  A
C168        C169   1.386       .  A
C169        H175   1.083       .  S
S170        C171   1.726       .  A
C171        C172   1.389       .  A
C172        H176   1.083       .  S
C177        S183   1.694       .  A
C177        C182   1.387       .  A
C177        C178   1.396       .  A
C178        C179   1.395       .  A
C178        H189   1.083   1_655  S
C179        C188   1.367       .  A
C179        C180   1.387       .  A
C180        S186   1.709       .  A
C180        C181   1.407       .  A
C181        C182   1.406       .  A
C181        H190   1.083       .  S
C182        C185   1.380       .  A
S183        C184   1.724       .  A
C184        C185   1.390       .  A
C185        H191   1.083       .  S
S186        C187   1.727       .  A
C187        C188   1.382       .  A
C188        H192   1.083   1_655  S
C193        S199   1.710   1_556  A
C193        C198   1.387       .  A
C193        C194   1.405   1_556  A
C194        C195   1.405       .  A
C194        H205   1.083       .  S
C195        C204   1.374       .  A
C195        C196   1.387   1_554  A
C196        S442   1.698       .  A
C196        C197   1.396       .  A
C197        C198   1.397       .  A
C197        H446   1.083       .  S
C198        C441   1.365       .  A
S199        C200   1.726   1_554  A
C200        C441   1.383       .  A
C201        C438   1.365       .  A
C201        C440   1.383       .  A
C201        H207   1.083       .  S
S202        C436   1.698       .  A
S202        C443   1.722       .  A
C203        S442   1.722   1_554  A
C203        C204   1.389       .  A
C204        H208   1.083       .  S
H206        C437   1.083       .  S
C209        S215   1.711       .  A
C209        C214   1.386       .  A
C209        C210   1.406       .  A
C210        C211   1.406       .  A
C210        H221   1.083       .  S
C211        C220   1.376       .  A
C211        C212   1.387       .  A
C212        S458   1.699       .  A
C212        C213   1.398       .  A
C213        C214   1.398       .  A
C213        H462   1.083       .  S
C214        C457   1.367       .  A
S215        C456   1.726       .  A
C216        C245   1.475       .  S
C216        S455   1.726       .  A
C216        C217   1.385   1_554  A
C217        C454   1.367       .  A
C217        H223   1.083       .  S
S218        C219   1.722       .  A
S218        C452   1.699       .  A
C219        C460   1.389   1_556  A
C220        C459   1.389       .  A
C220        H224   1.083       .  S
H222        C453   1.083       .  S
C225        S231   1.707       .  A
C225        C230   1.387       .  A
C225        C226   1.404       .  A
C226        C227   1.404       .  A
C226        H237   1.083       .  S
C227        C236   1.374       .  A
C227        C228   1.387       .  A
C228        S474   1.700       .  A
C228        C229   1.399       .  A
C229        C230   1.399       .  A
C229        H478   1.083       .  S
C230        C473   1.369       .  A
S231        C472   1.725       .  A
C232        S471   1.725   1_554  A
C232        C233   1.385       .  A
C233        C470   1.369       .  A
C233        H239   1.083       .  S
S234        C235   1.724       .  A
S234        C468   1.700       .  A
C235        C241   1.472       .  S
C235        C476   1.387       .  A
C236        C475   1.387       .  A
C236        H240   1.083       .  S
H238        C469   1.083       .  S
C241        N246   1.360       .  A
N242        C243   1.353       .  A
C243        N244   1.357       .  A
C243        C443   1.471       .  S
C245        N246   1.363       .  A
C247        N248   1.367       .  A
C247        N252   1.356       .  A
C247        C424   1.476       .  S
N248        C249   1.368       .  A
C249        N250   1.359       .  A
C249        C411   1.478       .  S
N250        C251   1.352       .  A
C251        N252   1.349       .  A
C251        C392   1.470       .  S
C253        N254   1.365       .  A
C253        N258   1.357       .  A
C253        C376   1.476       .  S
N254        C255   1.365       .  A
C255        N256   1.359       .  A
C255        C363   1.476       .  S
N256        C257   1.351       .  A
C257        N258   1.353       .  A
C257        C440   1.471       .  S
O259       Ni267   1.913       .  S
O259        C269   1.278   1_545  A
O260       Ni267   1.914       .  S
O260        C270   1.278   1_545  A
O261       Ni267   1.932   1_565  S
O261        C271   1.285       .  A
O262       Ni267   1.931       .  S
O262        C272   1.284       .  A
O263       Ni268   1.906       .  S
O263        C272   1.279   1_565  A
O264       Ni268   1.909       .  S
O264        C271   1.279       .  A
O265       Ni268   1.920       .  S
O265        C270   1.281       .  A
O266       Ni268   1.921       .  S
O266        C269   1.281       .  A
Ni267      Ni268   2.392   1_545  S
C269        C286   1.457       .  S
C270        C285   1.458       .  S
C271        C408   1.476       .  S
C272        C347   1.473       .  S
O273       Ni281   1.914   1_545  S
O273        C283   1.280       .  A
O274       Ni281   1.909       .  S
O274        C284   1.280       .  A
O275        C285   1.279       .  A
O276       Ni281   1.915       .  S
O276        C286   1.279       .  A
O277       Ni282   1.918       .  S
O277        C286   1.280   1_545  A
O278        C285   1.280   1_545  A
O279       Ni282   1.922   1_565  S
O279        C284   1.281       .  A
Ni281      Ni282   2.392   1_565  S
C283        C472   1.472       .  S
C284        C360   1.470       .  S
C287        N288   1.360       .  A
C287        N292   1.361       .  A
C287        C344   1.473       .  S
N288        C289   1.358       .  A
C289        N290   1.357       .  A
C289        C331   1.472       .  S
N290        C291   1.355       .  A
C291        N292   1.358       .  A
C291        C395   1.472       .  S
O293       Ni301   1.908       .  S
O293        C303   1.279   1_655  A
O294       Ni301   1.909       .  S
O294        C304   1.278       .  A
O295       Ni301   1.921       .  S
O295        C305   1.281   1_655  A
O296       Ni301   1.921       .  S
O296        C306   1.281   1_655  A
O297       Ni302   1.913       .  S
O297        C306   1.278       .  A
O298       Ni302   1.913       .  S
O298        C305   1.278       .  A
O299       Ni302   1.923       .  S
O299        C304   1.284   1_455  A
O300       Ni302   1.927       .  S
O300        C303   1.283       .  A
Ni301      Ni302   2.392   1_655  S
C303        C328   1.471       .  S
C304        C427   1.471       .  S
C305        C317   1.458       .  S
C306        C318   1.458       .  S
O307       Ni315   1.914       .  S
O307        C317   1.279       .  A
O308        C318   1.279       .  A
O309       Ni315   1.935       .  S
O309        C319   1.285       .  A
O311       Ni316   1.902       .  S
O311        C320   1.278       .  A
O313        C318   1.281   1_655  A
O314       Ni316   1.920       .  S
O314        C317   1.281   1_655  A
Ni315      Ni316   2.391   1_455  S
C319        C379   1.476       .  S
C320        C459   1.472       .  S
C321        S327   1.700       .  A
C321        C326   1.387       .  A
C321        C322   1.397       .  A
C322        C323   1.398       .  A
C322        H333   1.083       .  S
C323        C332   1.365       .  A
C323        C324   1.386       .  A
C324        S330   1.711       .  A
C324        C325   1.405       .  A
C325        C326   1.405       .  A
C325        H334   1.083       .  S
C326        C329   1.374       .  A
S327        C328   1.722       .  A
C328        C329   1.388       .  A
C329        H335   1.083       .  S
S330        C331   1.725       .  A
C331        C332   1.385       .  A
C332        H336   1.083       .  S
C337        S343   1.708       .  A
C337        C342   1.387       .  A
C337        C338   1.404       .  A
C338        C339   1.404       .  A
C338        H349   1.083       .  S
C339        C348   1.374       .  A
C339        C340   1.387       .  A
C340        S346   1.702   1_545  A
C340        C341   1.399       .  A
C341        C342   1.400       .  A
C341        H350   1.083       .  S
C342        C345   1.369       .  A
S343        C344   1.725       .  A
C344        C345   1.386       .  A
C345        H351   1.083       .  S
S346        C347   1.723   1_565  A
C347        C348   1.388       .  A
C348        H352   1.083       .  S
C353        S359   1.699       .  A
C353        C358   1.387       .  A
C353        C354   1.394       .  A
C354        C355   1.396       .  A
C354        H365   1.083       .  S
C355        C364   1.361       .  A
C355        C356   1.386       .  A
C356        C357   1.407       .  A
C357        C358   1.409       .  A
C357        H366   1.083       .  S
S359        C360   1.719       .  A
C361        H367   1.083       .  S
C363        C364   1.385       .  A
C364        H368   1.083       .  S
C369        S375   1.701       .  A
C369        C374   1.387       .  A
C369        C370   1.402       .  A
C370        C371   1.401       .  A
C370        H381   1.083       .  S
C371        C380   1.375       .  A
C371        C372   1.387       .  A
C372        C373   1.404       .  A
C373        C374   1.403       .  A
C373        H382   1.083       .  S
C374        C377   1.376       .  A
S375        C376   1.726       .  A
C376        C377   1.388       .  A
C379        C380   1.387       .  A
C380        H384   1.083       .  S
C385        S391   1.705   1_455  A
C385        C390   1.387   1_455  A
C385        C386   1.401       .  A
C386        C387   1.402   1_565  A
C386        H397   1.083       .  S
C387        C396   1.371       .  A
C387        C388   1.387       .  A
C388        S394   1.703       .  A
C388        C389   1.400   1_455  A
C389        C390   1.400   1_545  A
C389        H398   1.083       .  S
C390        C393   1.368       .  A
S391        C392   1.724       .  A
C392        C393   1.385       .  A
C393        H399   1.083       .  S
S394        C395   1.723       .  A
C395        C396   1.387       .  A
C396        H400   1.083       .  S
C401        S407   1.707       .  A
C401        C406   1.387       .  A
C401        C402   1.406       .  A
C402        C403   1.405       .  A
C402        H413   1.083       .  S
C403        C412   1.379       .  A
C403        C404   1.387       .  A
C404        S410   1.699       .  A
C404        C405   1.401       .  A
C405        C406   1.400       .  A
C405        H414   1.083       .  S
C406        C409   1.373       .  A
S407        C408   1.727       .  A
C408        C409   1.386       .  A
C409        H415   1.083       .  S
S410        C411   1.726       .  A
C411        C412   1.389       .  A
C412        H416   1.083       .  S
C417        S423   1.694       .  A
C417        C422   1.387       .  A
C417        C418   1.396       .  A
C418        C419   1.395       .  A
C418        H429   1.083   1_655  S
C419        C428   1.367       .  A
C419        C420   1.387       .  A
C420        S426   1.709       .  A
C420        C421   1.407       .  A
C421        C422   1.406       .  A
C421        H430   1.083       .  S
C422        C425   1.380       .  A
S423        C424   1.724       .  A
C424        C425   1.390       .  A
C425        H431   1.083       .  S
S426        C427   1.727       .  A
C427        C428   1.382       .  A
C428        H432   1.083   1_655  S
C433        S439   1.710       .  A
C433        C438   1.387       .  A
C433        C434   1.405       .  A
C434        C435   1.405       .  A
C434        H445   1.083       .  S
C435        C444   1.374       .  A
C435        C436   1.387       .  A
C436        C437   1.396       .  A
C437        C438   1.397       .  A
S439        C440   1.726       .  A
C441        H447   1.083       .  S
C443        C444   1.389       .  A
C444        H448   1.083       .  S
C449        S455   1.711       .  A
C449        C454   1.386   1_554  A
C449        C450   1.406       .  A
C450        C451   1.406       .  A
C450        H461   1.083       .  S
C451        C460   1.376       .  A
C451        C452   1.387   1_554  A
C452        C453   1.398       .  A
C453        C454   1.398       .  A
C456        C457   1.385       .  A
C457        H463   1.083       .  S
S458        C459   1.722       .  A
C460        H464   1.083       .  S
C465        S471   1.707   1_554  A
C465        C470   1.387       .  A
C465        C466   1.404       .  A
C466        C467   1.404       .  A
C466        H477   1.083   1_554  S
C467        C476   1.374       .  A
C467        C468   1.387       .  A
C468        C469   1.399       .  A
C469        C470   1.399       .  A
C472        C473   1.385       .  A
C473        H479   1.083       .  S
S474        C475   1.724       .  A
C476        H480   1.083       .  S
