geometry optimzed in LAMMPS
_audit_creation_date              2020-11-30 
_audit_creation_method            'lammps2cif' 
_symmetry_space_group_name_H-M    'P1' 
_symmetry_Int_Tables_number       1 
_symmetry_cell_setting            triclinic 
loop_ 
_symmetry_equiv_pos_as_xyz 
  x,y,z 
_cell_length_a                    43.378295375211586 
_cell_length_b                    43.825304506138735 
_cell_length_c                    20.533701423226187 
_cell_angle_alpha                 89.60297752640717 
_cell_angle_beta                  90.32863018418817 
_cell_angle_gamma                 123.44198887343515 
loop_ 
_atom_site_label 
_atom_site_type_symbol 
_atom_site_fract_x 
_atom_site_fract_y 
_atom_site_fract_z 
_atom_site_charge 
C1          C  0.49118304  0.51092866  0.24491868    -0.00150
C2          C  0.50712812  0.49041049  0.24571534    -0.00150
C3          C  0.98094904  0.50198052  0.25317412    -0.00150
C4          C  0.01945708  0.51853946  0.25384769    -0.00150
O5          O  0.27556516  0.60852188  0.31682908    -0.82510
C6          C  0.37881506  0.73114791  0.16787499     0.96850
O7          O  0.34489501  0.71406724  0.18037490    -0.71620
O8          O  0.27937439  0.65454532  0.20030080    -0.75220
Al9        Al  0.31959720  0.68686040  0.25462898     1.48980
C10         C  0.26622017  0.62321139  0.17737408     0.92100
O11         O  0.34042301  0.60352977  0.20297432    -0.81440
O12         O  0.39295153  0.65304137  0.31354202    -0.75000
Al13       Al  0.31165582  0.61192770  0.26027079     1.90120
O14         O  0.38969201  0.65691044  0.18297430    -0.74100
O15         O  0.39936151  0.71639329  0.32329526    -0.73910
O16         O  0.39837570  0.72117289  0.19305100    -0.79580
O17         O  0.35486739  0.72484211  0.30861600    -0.77780
O18         O  0.34046036  0.66112524  0.25607757    -1.13910
O19         O  0.29073492  0.66427474  0.32861675    -0.73110
C20         C  0.26873885  0.63072429  0.33933706     0.97610
C21         C  0.37032719  0.62303189  0.17286541     0.94010
Al22       Al  0.39008576  0.68442589  0.25350264     1.55560
O23         O  0.28212512  0.60684122  0.18832836    -0.77730
C24         C  0.38581577  0.73506571  0.33239847     0.98170
C25         C  0.37013580  0.62376935  0.34258964     0.93050
O26         O  0.33605347  0.60890013  0.33353915    -0.83050
C27         C  0.10327750  0.55423145  0.00456434    -0.00150
C28         C  0.14177707  0.57094815  0.00560776    -0.00150
C29         C  0.45154024  0.55251742  0.99501445    -0.00150
C30         C  0.42322752  0.55913089  0.99199976    -0.00150
C31         C  0.44548050  0.85907057  0.50086650    -0.00150
C32         C  0.46302170  0.89731081  0.50283658    -0.00150
C33         C  0.50117458  0.98275492  0.25245567    -0.00150
C34         C  0.51753098  0.02080270  0.25023052    -0.00150
O35         O  0.65280927  0.27923067  0.29980067    -0.82510
C36         C  0.61887004  0.36660927  0.16324510     0.96850
O37         O  0.60522305  0.33277322  0.16790488    -0.71620
O38         O  0.60717519  0.27422241  0.18817995    -0.75220
Al39       Al  0.60870174  0.30954817  0.24316916     1.48980
C40         C  0.63061325  0.27050769  0.16047504     0.92100
O41         O  0.72447127  0.35728909  0.19757182    -0.81440
O42         O  0.71939459  0.39730165  0.31099555    -0.75000
Al43       Al  0.68545630  0.32029651  0.24791436     1.90120
O44         O  0.71267857  0.39889625  0.18126038    -0.74060
O45         O  0.65236795  0.38553766  0.32619709    -0.73910
O46         O  0.64699619  0.38957441  0.19562503    -0.79580
O47         O  0.59885360  0.33844118  0.29538805    -0.77780
O48         O  0.65831867  0.33941514  0.24799384    -1.13910
O49         O  0.60454804  0.28131102  0.31880636    -0.73110
C50         C  0.62225620  0.26635048  0.32753969     0.97610
C51         C  0.73385394  0.38781523  0.17457510     0.94010
Al52       Al  0.68056397  0.38812846  0.25310844     1.55560
O53         O  0.66440183  0.29361986  0.17057595    -0.77730
C54         C  0.61752829  0.36762112  0.32698513     0.98170
C55         C  0.72959123  0.37778639  0.33516257     0.93050
O56         O  0.71082054  0.34402210  0.32431692    -0.83050
C57         C  0.54247453  0.44629429  0.49633283    -0.00150
C58         C  0.55988014  0.42722631  0.49501983    -0.00150
C59         C  0.56006913  0.10693677  0.00077532    -0.00150
C60         C  0.57905692  0.14511143  0.00363723    -0.00150
C61         C  0.89679167  0.46519007  0.00260219    -0.00150
C62         C  0.85805585  0.44694196  0.00433153    -0.00150
C63         C  0.79879844  0.40372900  0.15592315    -0.02560
C64         C  0.77088381  0.41054953  0.14250860     0.07120
C65         C  0.77990973  0.43997150  0.10073245    -0.02670
C66         C  0.81156162  0.45554966  0.06125161    -0.02670
C67         C  0.83565270  0.44288060  0.06431406     0.07260
C68         C  0.83060213  0.41928730  0.11662326    -0.02870
Br69       Br  0.86331071  0.40305656  0.13154532    -0.01420
Br70       Br  0.79564243  0.37463749  0.23046632    -0.01490
Br71       Br  0.82068926  0.49468594  0.50349207    -0.01450
Br72       Br  0.75074474  0.46106114  0.09845559    -0.01430
C73         C  0.79483993  0.43165829  0.36062529    -0.02560
C74         C  0.76519563  0.39479742  0.37237475     0.07120
C75         C  0.77188337  0.37322147  0.41396587    -0.02670
C76         C  0.80387863  0.38967273  0.45273278    -0.02670
C77         C  0.83200326  0.42774415  0.44702802     0.07260
C78         C  0.82839351  0.44747190  0.39591142    -0.02870
Br79       Br  0.86778847  0.49711140  0.37528455    -0.01420
Br80       Br  0.79148821  0.46118857  0.29382349    -0.01490
Br81       Br  0.80790958  0.35760714  0.51202498    -0.01450
Br82       Br  0.73850535  0.32031245  0.41805232    -0.01430
C83         C  0.61551589  0.20617549  0.35053539    -0.02560
C84         C  0.60702029  0.23215370  0.36713608     0.07120
C85         C  0.58413297  0.22471328  0.42127493    -0.02670
C86         C  0.56833537  0.19134162  0.45506980    -0.02670
C87         C  0.58194558  0.16867337  0.44635758     0.07260
C88         C  0.60566431  0.17654877  0.39261559    -0.02870
Br89       Br  0.62924019  0.15094910  0.37793707    -0.01420
Br90       Br  0.64161827  0.21063421  0.27091756    -0.01490
Br91       Br  0.52716868  0.17695626  0.51217333    -0.01450
Br92       Br  0.57980143  0.26224976  0.45853364    -0.01430
C93         C  0.57696430  0.16985113  0.11575988    -0.02560
C94         C  0.59789244  0.16850656  0.06457267     0.07120
C95         C  0.63364249  0.20065073  0.05556412    -0.02670
C96         C  0.64333001  0.23440077  0.08226860    -0.02670
C97         C  0.61834029  0.23651285  0.12281762     0.07260
C98         C  0.58437337  0.20350476  0.13822571    -0.02870
Br99       Br  0.54759447  0.20131592  0.19527830    -0.01420
Br100      Br  0.55823920  0.13397791  0.18359114    -0.01490
Br101      Br  0.69018372  0.27774980  0.05824709    -0.01450
Br102      Br  0.67091039  0.19841380  0.51018117    -0.01430
C103        C  0.60885688  0.41850686  0.35177858    -0.02560
C104        C  0.59785822  0.38184917  0.36075813     0.07120
C105        C  0.56554680  0.35815210  0.39641154    -0.02670
C106        C  0.54980963  0.37239026  0.43493243    -0.02670
C107        C  0.56432328  0.41059174  0.43425148     0.07260
C108        C  0.59170550  0.43268346  0.38720764    -0.02870
Br109      Br  0.61109410  0.48391900  0.37693335    -0.01420
Br110      Br  0.64668240  0.44954892  0.28909624    -0.01490
Br111      Br  0.50997877  0.33823460  0.49194407    -0.01450
Br112      Br  0.54206876  0.30580401  0.39362455    -0.01430
C113        C  0.62279714  0.40428496  0.07136867    -0.02560
C114        C  0.60176761  0.38069977  0.12171921     0.07120
C115        C  0.56870503  0.37722475  0.14012815    -0.02670
C116        C  0.55536943  0.39529786  0.10403956    -0.02670
C117        C  0.57704055  0.41975437  0.05268588     0.07260
C118        C  0.61317964  0.42701113  0.04354973    -0.02870
Br119      Br  0.65218006  0.46905748  0.49739270    -0.01420
Br120      Br  0.66285267  0.40250726  0.03582455    -0.01490
Br121      Br  0.50600367  0.38222159  0.12242223    -0.01450
Br122      Br  0.54063323  0.34607437  0.21255661    -0.01430
C123        C  0.56225875  0.05751563  0.34633974    -0.02560
C124        C  0.52791934  0.04353790  0.31432581     0.07120
C125        C  0.50471577  0.05251982  0.34637841    -0.02670
C126        C  0.51884719  0.07933795  0.39608634    -0.02670
C127        C  0.54880199  0.08573442  0.43568532     0.07260
C128        C  0.56781636  0.07015813  0.41143662    -0.02870
Br129      Br  0.60482258  0.06880509  0.46029704    -0.01420
Br130      Br  0.60635190  0.07127703  0.30031156    -0.01490
Br131      Br  0.49796419  0.10817699  0.39989917    -0.01450
Br132      Br  0.45200346  0.02389995  0.34227265    -0.01430
C133        C  0.50429569  0.05017075  0.15155219    -0.02560
C134        C  0.52763741  0.04122209  0.18357892     0.07120
C135        C  0.56183874  0.05420067  0.15116328    -0.02670
C136        C  0.57441464  0.08034100  0.10041666    -0.02670
C137        C  0.54912120  0.08396965  0.06311640     0.07260
C138        C  0.51281241  0.06637060  0.08837173    -0.02870
Br139      Br  0.47593479  0.07014642  0.04409585    -0.01420
Br140      Br  0.46592983  0.05062724  0.19615271    -0.01490
Br141      Br  0.62704822  0.11528160  0.09460363    -0.01450
Br142      Br  0.59094407  0.03405678  0.16252465    -0.01430
C143        C  0.50442875  0.92794872  0.39992921    -0.02560
C144        C  0.47453774  0.92069112  0.44007534     0.07120
C145        C  0.45537999  0.93678947  0.41833479    -0.02670
C146        C  0.45964701  0.94964371  0.35329667    -0.02670
C147        C  0.49284789  0.96243286  0.31869774     0.07260
C148        C  0.51718788  0.95446325  0.34949308    -0.02870
Br149      Br  0.56983998  0.98538102  0.34230764    -0.01420
Br150      Br  0.52858463  0.90230270  0.40790691    -0.01490
Br151      Br  0.41532557  0.93884654  0.31070985    -0.01450
Br152      Br  0.41905537  0.93733197  0.47022201    -0.01430
C153        C  0.45565389  0.94442694  0.15665761    -0.02560
C154        C  0.49047146  0.95997740  0.18869613     0.07120
C155        C  0.51483850  0.95275535  0.15710867    -0.02670
C156        C  0.50832109  0.94018440  0.09191436    -0.02670
C157        C  0.47160404  0.91819689  0.06774948     0.07260
C158        C  0.44464964  0.91807121  0.10677206    -0.02870
Br159      Br  0.39263679  0.88233632  0.09787329    -0.01420
Br160      Br  0.42559915  0.96370804  0.16284918    -0.01490
Br161      Br  0.55047347  0.95053501  0.04245607    -0.01450
Br162      Br  0.55082249  0.94852903  0.20328687    -0.01430
C163        C  0.37510980  0.76949145  0.08129438    -0.02560
C164        C  0.39615525  0.76533139  0.12833348     0.07120
C165        C  0.43167747  0.79602642  0.14419612    -0.02670
C166        C  0.44714044  0.82900743  0.10846956    -0.02670
C167        C  0.42657954  0.83301747  0.05885901     0.07260
C168        C  0.38891681  0.80353140  0.05124001    -0.02870
Br169      Br  0.35425602  0.80825095  0.50135218    -0.01420
Br170      Br  0.32787567  0.72772517  0.05348311    -0.01490
Br171      Br  0.49754502  0.86623806  0.12711007    -0.01450
Br172      Br  0.45990107  0.79406908  0.21597445    -0.01430
C173        C  0.40152943  0.79889274  0.35017565    -0.02560
C174        C  0.40705582  0.77082819  0.36696664     0.07120
C175        C  0.43453974  0.77866002  0.41319343    -0.02670
C176        C  0.45370261  0.81266323  0.44513870    -0.02670
C177        C  0.44163621  0.83704498  0.44040326     0.07260
C178        C  0.41642717  0.83027559  0.38928515    -0.02870
Br179      Br  0.39641248  0.85916173  0.37487196    -0.01420
Br180      Br  0.37433146  0.79584212  0.27218082    -0.01490
Br181      Br  0.49686215  0.82469798  0.49440063    -0.01450
Br182      Br  0.44528259  0.74262703  0.43688557    -0.01430
C183        C  0.36953767  0.56783361  0.13052751    -0.02560
C184        C  0.38371800  0.60593801  0.12754719     0.07120
C185        C  0.41300451  0.62815314  0.08374504    -0.02670
C186        C  0.42868807  0.61317811  0.04678722    -0.02670
C187        C  0.41348224  0.57517900  0.04677935     0.07260
C188        C  0.38335867  0.55256263  0.08864856    -0.02870
Br189      Br  0.36189990  0.50052446  0.09115922    -0.01420
Br190      Br  0.33194618  0.53528193  0.19259068    -0.01490
Br191      Br  0.47302628  0.64621836  0.99969872    -0.01450
Br192      Br  0.43159970  0.67932623  0.06934846    -0.01430
C193        C  0.41592277  0.60617944  0.36079495    -0.02560
C194        C  0.38315181  0.60370179  0.38004552     0.07120
C195        C  0.35804988  0.57392800  0.42040092    -0.02670
C196        C  0.36557834  0.54769688  0.43842233    -0.02670
C197        C  0.40155810  0.55541417  0.43083175     0.07260
C198        C  0.42071314  0.57807231  0.37813018    -0.02870
Br199      Br  0.41541281  0.55020635  0.30420556    -0.01420
Br200      Br  0.45037862  0.64081388  0.29731083    -0.01490
Br201      Br  0.32480335  0.49828336  0.95112228    -0.01450
Br202      Br  0.31425477  0.56891911  0.45471188    -0.01430
C203        C  0.20379128  0.61311236  0.15515055    -0.02560
C204        C  0.23046336  0.60482980  0.14105804     0.07120
C205        C  0.22113968  0.57689750  0.09599053    -0.02670
C206        C  0.18815503  0.56104394  0.06006036    -0.02670
C207        C  0.16467370  0.57433457  0.06494639     0.07260
C208        C  0.17157414  0.59858355  0.11673618    -0.02870
Br209      Br  0.14038080  0.61638770  0.13265207    -0.01420
Br210      Br  0.20982976  0.64367760  0.22843528    -0.01490
Br211      Br  0.17601454  0.52011309  0.50527856    -0.01450
Br212      Br  0.25359614  0.56023753  0.08022061    -0.01430
C213        C  0.20154012  0.58153699  0.36125921    -0.02560
C214        C  0.23327829  0.61699020  0.37432881     0.07120
C215        C  0.22924754  0.64024387  0.41545991    -0.02670
C216        C  0.19696946  0.62616437  0.45238570    -0.02670
C217        C  0.16710556  0.58872768  0.44741435     0.07260
C218        C  0.16863988  0.56771417  0.39697356    -0.02870
Br219      Br  0.12787175  0.51838625  0.37929019    -0.01420
Br220      Br  0.20119841  0.55139392  0.29208293    -0.01490
Br221      Br  0.19529323  0.66008494  0.50952422    -0.01450
Br222      Br  0.26708995  0.69212311  0.42218854    -0.01430
C223        C  0.05227498  0.50934057  0.42537950    -0.02560
C224        C  0.08155739  0.54585182  0.44024682     0.07120
C225        C  0.08984258  0.57308918  0.39265282    -0.02670
C226        C  0.07126435  0.56385465  0.33184549    -0.02670
C227        C  0.04120113  0.52762027  0.31807764     0.07260
C228        C  0.03279168  0.50033535  0.36543684    -0.02870
Br229      Br  0.99876766  0.44911726  0.34536403    -0.01420
Br230      Br  0.04060131  0.46955946  0.48300696    -0.01490
Br231      Br  0.08707401  0.60288128  0.26959103    -0.01450
Br232      Br  0.12276052  0.62443570  0.41129978    -0.01430
C233        C  0.06423089  0.51488050  0.17731679    -0.02560
C234        C  0.04162692  0.52834692  0.19028543     0.07120
C235        C  0.04019590  0.55081731  0.14188932    -0.02670
C236        C  0.05840924  0.55731020  0.08131896    -0.02670
C237        C  0.08052174  0.54325829  0.06771661     0.07260
C238        C  0.08180255  0.52070507  0.11633355    -0.02870
Br239      Br  0.10301010  0.49277089  0.09911203    -0.01420
Br240      Br  0.07047857  0.48604508  0.24071327    -0.01490
Br241      Br  0.05494343  0.58894592  0.02059808    -0.01450
Br242      Br  0.01821543  0.57804294  0.16096763    -0.01430
C243        C  0.92914663  0.45637792  0.33069578    -0.02560
C244        C  0.95889651  0.49273089  0.31671814     0.07120
C245        C  0.96689172  0.51991610  0.36336375    -0.02670
C246        C  0.94710382  0.51071765  0.42280154    -0.02670
C247        C  0.91819784  0.47401049  0.43810415     0.07260
C248        C  0.91051771  0.44688836  0.39124832    -0.02870
Br249      Br  0.87900847  0.39543776  0.41091170    -0.01420
Br250      Br  0.91434071  0.41745932  0.26953508    -0.01490
Br251      Br  0.95876263  0.55040760  0.97980677    -0.01450
Br252      Br  0.00127544  0.57117679  0.34309199    -0.01430
C253        C  0.91837191  0.49925256  0.11360628    -0.02560
C254        C  0.92009163  0.47701016  0.06557560     0.07120
C255        C  0.94295257  0.46378816  0.07988231    -0.02670
C256        C  0.96097981  0.47022606  0.14093053    -0.02670
C257        C  0.95908670  0.49233560  0.18887014     0.07260
C258        C  0.93614811  0.50543731  0.17482084    -0.02870
Br259      Br  0.92925280  0.53380402  0.23735363    -0.01420
Br260      Br  0.89596863  0.52607267  0.09509925    -0.01490
Br261      Br  0.98285111  0.44291392  0.16144296    -0.01450
Br262      Br  0.94702184  0.43265318  0.01996323    -0.01430
C263        C  0.49592585  0.55839820  0.32585586    -0.02560
C264        C  0.48018672  0.52113519  0.30928046     0.07120
C265        C  0.45423828  0.49445187  0.35467357    -0.02670
C266        C  0.44586713  0.50479494  0.41464645    -0.02670
C267        C  0.46245949  0.54190057  0.43161201     0.07260
C268        C  0.48783639  0.56847996  0.38601315    -0.02870
Br269      Br  0.51286151  0.61976245  0.40433678    -0.01420
Br270      Br  0.52986920  0.59727720  0.26729804    -0.01490
Br271      Br  0.41005654  0.46783096  0.47356914    -0.01450
Br272      Br  0.42637757  0.44323804  0.33347688    -0.01430
C273        C  0.44862651  0.54302030  0.12049448    -0.02560
C274        C  0.46777080  0.54957550  0.06141618     0.07120
C275        C  0.50264528  0.55370469  0.06988474    -0.02670
C276        C  0.51220065  0.54483765  0.13119001    -0.02670
C277        C  0.48459724  0.52479646  0.18008474     0.07260
C278        C  0.45038014  0.52053333  0.16749529    -0.02870
Br279      Br  0.40574803  0.48515306  0.21190543    -0.01420
Br280      Br  0.46307342  0.58815709  0.16252424    -0.01490
Br281      Br  0.56362730  0.56552061  0.14974368    -0.01450
Br282      Br  0.54036708  0.57777350  0.50513879    -0.01430
C283        C  0.50137579  0.44158895  0.32454399    -0.02560
C284        C  0.51600327  0.47892894  0.31025446     0.07120
C285        C  0.53987949  0.50510044  0.35735130    -0.02670
C286        C  0.54692259  0.49421395  0.41774544    -0.02670
C287        C  0.53165730  0.45682247  0.43270541     0.07260
C288        C  0.50775495  0.43066045  0.38548317    -0.02870
Br289      Br  0.47889398  0.37908279  0.40485175    -0.01420
Br290      Br  0.47134506  0.40368587  0.26216810    -0.01490
Br291      Br  0.58228811  0.53205676  0.47545644    -0.01450
Br292      Br  0.56916431  0.55654921  0.33603685    -0.01430
C293        C  0.56162465  0.47909998  0.10850276    -0.02560
C294        C  0.53420351  0.45857494  0.06027834     0.07120
C295        C  0.49768233  0.44879626  0.07421733    -0.02670
C296        C  0.48878547  0.45785523  0.13428632    -0.02670
C297        C  0.51619186  0.47841087  0.18224577     0.07260
C298        C  0.55240311  0.48720924  0.16925577    -0.02870
Br299      Br  0.59152452  0.51257880  0.23226714    -0.01420
Br300      Br  0.61345099  0.50156478  0.09065746    -0.01490
Br301      Br  0.43725753  0.43641167  0.15338327    -0.01450
Br302      Br  0.45754930  0.42012780  0.01426766    -0.01430
C303        C  0.49118834  0.51093939  0.74492628    -0.00150
C304        C  0.50713199  0.49041967  0.74571983    -0.00150
C305        C  0.98094411  0.50198733  0.75319993    -0.00150
C306        C  0.01945421  0.51855596  0.75388529    -0.00150
O307        O  0.27570906  0.60858514  0.81704946    -0.82510
C308        C  0.37902022  0.73116820  0.66760844     0.96850
O309        O  0.34510972  0.71418519  0.68008186    -0.71620
O310        O  0.27954757  0.65468880  0.69950713    -0.75220
Al311      Al  0.31961359  0.68690712  0.75412731     1.48980
C312        C  0.26622437  0.62322963  0.67707331     0.92100
O313        O  0.34029360  0.60353700  0.70259277    -0.81440
O314        O  0.39298698  0.65319326  0.81384174    -0.75000
Al315      Al  0.31164207  0.61192355  0.76018062     1.90120
O316        O  0.38985054  0.65684641  0.68328612    -0.74100
O317        O  0.39932221  0.71650446  0.82310012    -0.73910
O318        O  0.39850914  0.72112909  0.69284735    -0.79580
O319        O  0.35473459  0.72482059  0.80840816    -0.77780
O320        O  0.34046540  0.66113829  0.75589962    -1.13910
O321        O  0.29047143  0.66428136  0.82777944    -0.73110
C322        C  0.26872534  0.63076199  0.83910396     0.97610
C323        C  0.37032446  0.62300500  0.67282482     0.94010
Al324      Al  0.39012523  0.68445220  0.75353477     1.55560
O325        O  0.28192504  0.60671623  0.68851318    -0.77730
C326        C  0.38567894  0.73508111  0.83226214     0.98170
C327        C  0.37018084  0.62382502  0.84260949     0.93050
O328        O  0.33611427  0.60882326  0.83322436    -0.83050
C329        C  0.10321893  0.55419193  0.50456816    -0.00150
C330        C  0.14171394  0.57089819  0.50560767    -0.00150
C331        C  0.45152564  0.55249453  0.49500856    -0.00150
C332        C  0.42320489  0.55909593  0.49197839    -0.00150
C333        C  0.44520923  0.85901538  0.00106106    -0.00150
C334        C  0.46280270  0.89726472  0.00293279    -0.00150
C335        C  0.50114023  0.98266672  0.75246401    -0.00150
C336        C  0.51752385  0.02072139  0.75024040    -0.00150
O337        O  0.65283348  0.27924774  0.79974070    -0.82510
C338        C  0.61888979  0.36664139  0.66325453     0.96850
O339        O  0.60523747  0.33280505  0.66792114    -0.71620
O340        O  0.60719303  0.27426345  0.68817076    -0.75220
Al341      Al  0.60872365  0.30957811  0.74316955     1.48980
C342        C  0.63062116  0.27054191  0.66045166     0.92100
O343        O  0.72448399  0.35731598  0.69752340    -0.81440
O344        O  0.71940358  0.39731682  0.81100468    -0.75000
Al345      Al  0.68547584  0.32032206  0.74786284     1.90120
O346        O  0.71270702  0.39893843  0.68127037    -0.74060
O347        O  0.65238656  0.38556242  0.82619854    -0.73910
O348        O  0.64702037  0.38960696  0.69562516    -0.79580
O349        O  0.59887498  0.33846175  0.79540048    -0.77780
O350        O  0.65833996  0.33944400  0.74797902    -1.13910
O351        O  0.60458054  0.28133606  0.81879320    -0.73110
C352        C  0.62228455  0.26636823  0.82749492     0.97610
C353        C  0.73387355  0.38784931  0.67455677     0.94010
Al354      Al  0.68058440  0.38815692  0.75311128     1.55560
O355        O  0.66441249  0.29365446  0.67052171    -0.77730
C356        C  0.61754751  0.36764168  0.82699372     0.98170
C357        C  0.72960482  0.37780001  0.83514501     0.93050
O358        O  0.71084984  0.34403999  0.82425789    -0.83050
C359        C  0.54247336  0.44628988  0.99633237    -0.00150
C360        C  0.55987800  0.42722097  0.99502065    -0.00150
C361        C  0.56002907  0.10692425  0.50084593    -0.00150
C362        C  0.57901779  0.14510066  0.50372757    -0.00150
C363        C  0.89680205  0.46519480  0.50258934    -0.00150
C364        C  0.85806568  0.44694690  0.50431295    -0.00150
C365        C  0.79881339  0.40375637  0.65591341    -0.02560
C366        C  0.77090250  0.41058077  0.64249242     0.07120
C367        C  0.77992926  0.43999835  0.60070590    -0.02670
C368        C  0.81157911  0.45556853  0.56122227    -0.02670
C369        C  0.83566524  0.44289378  0.56429196     0.07260
C370        C  0.83061389  0.41930490  0.61660975    -0.02870
Br371      Br  0.86331572  0.40306707  0.63154468    -0.01420
Br372      Br  0.79565457  0.37467096  0.73046903    -0.01490
Br373      Br  0.82066715  0.49467008  0.00353371    -0.01450
Br374      Br  0.75076570  0.46108887  0.59841470    -0.01430
C375        C  0.79484501  0.43166832  0.86063360    -0.02560
C376        C  0.76520014  0.39480733  0.87237433     0.07120
C377        C  0.77187868  0.37322768  0.91397150    -0.02670
C378        C  0.80387180  0.38967415  0.95274068    -0.02670
C379        C  0.83199712  0.42774571  0.94704418     0.07260
C380        C  0.82839322  0.44747957  0.89593208    -0.02870
Br381      Br  0.86778533  0.49712531  0.87533271    -0.01420
Br382      Br  0.79150032  0.46120174  0.79382844    -0.01490
Br383      Br  0.80789846  0.35760226  0.01202405    -0.01450
Br384      Br  0.73848496  0.32032063  0.91807270    -0.01430
C385        C  0.61552951  0.20617936  0.85044093    -0.02560
C386        C  0.60704799  0.23216515  0.86707334     0.07120
C387        C  0.58416783  0.22472366  0.92122285    -0.02670
C388        C  0.56836901  0.19134864  0.95500298    -0.02670
C389        C  0.58197409  0.16867818  0.94626929     0.07260
C390        C  0.60567582  0.17654486  0.89250453    -0.02870
Br391      Br  0.62921054  0.15090837  0.87775750    -0.01420
Br392      Br  0.64160559  0.21063128  0.77079520    -0.01490
Br393      Br  0.52720267  0.17695679  0.01210884    -0.01450
Br394      Br  0.57984383  0.26225886  0.95851140    -0.01430
C395        C  0.57692361  0.16987262  0.61581562    -0.02560
C396        C  0.59785330  0.16849946  0.56466052     0.07120
C397        C  0.63361067  0.20063656  0.55564265    -0.02670
C398        C  0.64330489  0.23440023  0.58228607    -0.02670
C399        C  0.61833044  0.23653364  0.62283390     0.07260
C400        C  0.58436538  0.20353685  0.63829475    -0.02870
Br401      Br  0.54760796  0.20139125  0.69535720    -0.01420
Br402      Br  0.55790072  0.13387234  0.68343816    -0.01490
Br403      Br  0.69015023  0.27773908  0.55818893    -0.01450
Br404      Br  0.67092736  0.19844681  0.01000255    -0.01430
C405        C  0.60886521  0.41851901  0.85178489    -0.02560
C406        C  0.59787375  0.38186381  0.86076787     0.07120
C407        C  0.56556216  0.35816121  0.89641693    -0.02670
C408        C  0.54981431  0.37239248  0.93492534    -0.02670
C409        C  0.56432459  0.41059296  0.93424966     0.07260
C410        C  0.59170924  0.43269032  0.88721356    -0.02870
Br411      Br  0.61109929  0.48392752  0.87695829    -0.01420
Br412      Br  0.64668766  0.44956510  0.78910081    -0.01490
Br413      Br  0.50997590  0.33823034  0.99191925    -0.01450
Br414      Br  0.54210017  0.30581482  0.89364670    -0.01430
C415        C  0.62281155  0.40431045  0.57137338    -0.02560
C416        C  0.60178615  0.38072985  0.62173111     0.07120
C417        C  0.56872161  0.37725030  0.64014003    -0.02670
C418        C  0.55538036  0.39531575  0.60404547    -0.02670
C419        C  0.57704736  0.41976775  0.55268431     0.07260
C420        C  0.61318798  0.42702941  0.54354592    -0.02870
Br421      Br  0.65217723  0.46904082  0.99740797    -0.01420
Br422      Br  0.66286689  0.40253317  0.53582744    -0.01490
Br423      Br  0.50601346  0.38223538  0.62243246    -0.01450
Br424      Br  0.54065439  0.34610297  0.71257499    -0.01430
C425        C  0.56225765  0.05743264  0.84636272    -0.02560
C426        C  0.52792143  0.04346445  0.81433535     0.07120
C427        C  0.50473932  0.05248649  0.84635109    -0.02670
C428        C  0.51888526  0.07932564  0.89602323    -0.02670
C429        C  0.54883499  0.08572340  0.93563706     0.07260
C430        C  0.56783263  0.07011949  0.91143339    -0.02870
Br431      Br  0.60484797  0.06879162  0.96031285    -0.01420
Br432      Br  0.60633327  0.07108216  0.80039198    -0.01490
Br433      Br  0.49801889  0.10818092  0.89977426    -0.01450
Br434      Br  0.45202722  0.02386948  0.84233003    -0.01430
C435        C  0.50423688  0.05002055  0.65151862    -0.02560
C436        C  0.52762220  0.04114219  0.68358596     0.07120
C437        C  0.56184874  0.05419190  0.65120777    -0.02670
C438        C  0.57440366  0.08034648  0.60048839    -0.02670
C439        C  0.54908887  0.08393122  0.56316183     0.07260
C440        C  0.51275524  0.06623958  0.58835038    -0.02870
Br441      Br  0.47583183  0.06992343  0.54403134    -0.01420
Br442      Br  0.46578562  0.05035119  0.69606720    -0.01490
Br443      Br  0.62703032  0.11529537  0.59464013    -0.01450
Br444      Br  0.59097424  0.03406238  0.66244307    -0.01430
C445        C  0.50420910  0.92778046  0.89998979    -0.02560
C446        C  0.47433508  0.92059290  0.94010981     0.07120
C447        C  0.45522520  0.93672639  0.91829641    -0.02670
C448        C  0.45953546  0.94957482  0.85324679    -0.02670
C449        C  0.49274798  0.96232917  0.81870583     0.07260
C450        C  0.51703002  0.95429992  0.84955598    -0.02870
Br451      Br  0.56969068  0.98519004  0.84257952    -0.01420
Br452      Br  0.52827078  0.90204477  0.90801072    -0.01490
Br453      Br  0.41524695  0.93881414  0.81058835    -0.01450
Br454      Br  0.41892255  0.93734532  0.97011696    -0.01430
C455        C  0.45567736  0.94428684  0.65662003    -0.02560
C456        C  0.49049321  0.95989874  0.68869802     0.07120
C457        C  0.51491858  0.95274341  0.65714352    -0.02670
C458        C  0.50845357  0.94019530  0.59193664    -0.02670
C459        C  0.47175443  0.91817597  0.56770832     0.07260
C460        C  0.44474600  0.91795552  0.60671997    -0.02870
Br461      Br  0.39275426  0.88214483  0.59774381    -0.01420
Br462      Br  0.42555347  0.96349375  0.66265074    -0.01490
Br463      Br  0.55065187  0.95062045  0.54254004    -0.01450
Br464      Br  0.55091632  0.94856444  0.70337746    -0.01430
C465        C  0.37543839  0.76942965  0.58076879    -0.02560
C466        C  0.39642228  0.76532155  0.62800366     0.07120
C467        C  0.43188868  0.79604517  0.64402522    -0.02670
C468        C  0.44737403  0.82901949  0.60826673    -0.02670
C469        C  0.42683354  0.83301513  0.55858647     0.07260
C470        C  0.38919948  0.80348283  0.55082564    -0.02870
Br471      Br  0.35401936  0.80835164  0.00172310    -0.01420
Br472      Br  0.32837956  0.72756936  0.55253942    -0.01490
Br473      Br  0.49776950  0.86625160  0.62698008    -0.01450
Br474      Br  0.45998236  0.79411872  0.71606111    -0.01430
C475        C  0.40133651  0.79887099  0.85021874    -0.02560
C476        C  0.40682052  0.77078330  0.86701687     0.07120
C477        C  0.43419537  0.77853814  0.91342477    -0.02670
C478        C  0.45334328  0.81251815  0.94543531    -0.02670
C479        C  0.44131495  0.83693063  0.94064974     0.07260
C480        C  0.41615556  0.83020100  0.88945295    -0.02870
Br481      Br  0.39612011  0.85906987  0.87503288    -0.01420
Br482      Br  0.37434550  0.79592790  0.77200470    -0.01490
Br483      Br  0.49647418  0.82449503  0.99473060    -0.01450
Br484      Br  0.44479860  0.74242265  0.93726951    -0.01430
C485        C  0.36954324  0.56781565  0.63055015    -0.02560
C486        C  0.38367829  0.60590161  0.62747776     0.07120
C487        C  0.41290173  0.62810360  0.58358164    -0.02670
C488        C  0.42861374  0.61314565  0.54666131    -0.02670
C489        C  0.41345108  0.57515198  0.54673213     0.07260
C490        C  0.38334801  0.55253838  0.58865027    -0.02870
Br491      Br  0.36189276  0.50050413  0.59120664    -0.01420
Br492      Br  0.33207255  0.53533138  0.69283402    -0.01490
Br493      Br  0.47291829  0.64620840  0.49951295    -0.01450
Br494      Br  0.43131188  0.67921490  0.56898893    -0.01430
C495        C  0.41596859  0.60625819  0.86084537    -0.02560
C496        C  0.38321579  0.60380070  0.88013140     0.07120
C497        C  0.35810998  0.57403628  0.92048645    -0.02670
C498        C  0.36561259  0.54778330  0.93847592    -0.02670
C499        C  0.40158306  0.55547515  0.93086284     0.07260
C500        C  0.42074533  0.57813863  0.87816698    -0.02870
Br501      Br  0.41546140  0.55028086  0.80423524    -0.01420
Br502      Br  0.45036507  0.64085651  0.79725920    -0.01490
Br503      Br  0.32479789  0.49818799  0.45111739    -0.01450
Br504      Br  0.31432494  0.56906584  0.95475548    -0.01430
C505        C  0.20381239  0.61313341  0.65497562    -0.02560
C506        C  0.23046842  0.60484889  0.64081367     0.07120
C507        C  0.22110992  0.57687549  0.59583798    -0.02670
C508        C  0.18809284  0.56098368  0.56000443    -0.02670
C509        C  0.16461073  0.57427325  0.56492903     0.07260
C510        C  0.17154509  0.59854840  0.61669339    -0.02870
Br511      Br  0.14033404  0.61631457  0.63274520    -0.01420
Br512      Br  0.20996442  0.64377784  0.72819585    -0.01490
Br513      Br  0.17610475  0.52020603  0.00526132    -0.01450
Br514      Br  0.25358377  0.56023862  0.58007638    -0.01430
C515        C  0.20157920  0.58157152  0.86120051    -0.02560
C516        C  0.23332134  0.61701049  0.87426700     0.07120
C517        C  0.22933876  0.64025615  0.91548812    -0.02670
C518        C  0.19705721  0.62619852  0.95239359    -0.02670
C519        C  0.16717189  0.58876885  0.94740815     0.07260
C520        C  0.16868976  0.56775107  0.89694840    -0.02870
Br521      Br  0.12792300  0.51842430  0.87927306    -0.01420
Br522      Br  0.20124804  0.55146818  0.79196872    -0.01490
Br523      Br  0.19540178  0.66014164  0.00949551    -0.01450
Br524      Br  0.26730644  0.69208326  0.92242906    -0.01430
C525        C  0.05231620  0.50937296  0.92539683    -0.02560
C526        C  0.08160848  0.54588426  0.94024558     0.07120
C527        C  0.08988016  0.57311861  0.89265434    -0.02670
C528        C  0.07127358  0.56388194  0.83187078    -0.02670
C529        C  0.04120544  0.52764574  0.81811601     0.07260
C530        C  0.03281041  0.50036470  0.86547541    -0.02870
Br531      Br  0.99877252  0.44914548  0.84542699    -0.01420
Br532      Br  0.04065326  0.46959397  0.98302281    -0.01490
Br533      Br  0.08705134  0.60290901  0.76963287    -0.01450
Br534      Br  0.12282533  0.62446516  0.91128573    -0.01430
C535        C  0.06421171  0.51488026  0.67734779    -0.02560
C536        C  0.04161874  0.52835772  0.69032306     0.07120
C537        C  0.04017712  0.55081760  0.64191857    -0.02670
C538        C  0.05836929  0.55728919  0.58133294    -0.02670
C539        C  0.08046791  0.54322351  0.56772134     0.07260
C540        C  0.08175574  0.52067747  0.61634518    -0.02870
Br541      Br  0.10293395  0.49271746  0.59911722    -0.01420
Br542      Br  0.07047887  0.48606492  0.74076074    -0.01490
Br543      Br  0.05489521  0.58891486  0.52060308    -0.01450
Br544      Br  0.01820548  0.57805185  0.66099572    -0.01430
C545        C  0.92913867  0.45638093  0.83070925    -0.02560
C546        C  0.95888784  0.49273492  0.81673704     0.07120
C547        C  0.96688039  0.51991852  0.86338318    -0.02670
C548        C  0.94709411  0.51071748  0.92282184    -0.02670
C549        C  0.91818625  0.47400964  0.93811669     0.07260
C550        C  0.91050669  0.44688923  0.89125802    -0.02870
Br551      Br  0.87899944  0.39543797  0.91091901    -0.01420
Br552      Br  0.91434043  0.41746331  0.76955049    -0.01490
Br553      Br  0.95876148  0.55040990  0.47977026    -0.01450
Br554      Br  0.00125746  0.57118003  0.84311100    -0.01430
C555        C  0.91837874  0.49926072  0.61359941    -0.02560
C556        C  0.92010021  0.47701763  0.56557096     0.07120
C557        C  0.94295527  0.46379076  0.57989459    -0.02670
C558        C  0.96097998  0.47022992  0.64094854    -0.02670
C559        C  0.95908426  0.49233966  0.68888624     0.07260
C560        C  0.93614558  0.50544013  0.67482453    -0.02870
Br561      Br  0.92923412  0.53379470  0.73735970    -0.01420
Br562      Br  0.89598271  0.52608616  0.59508101    -0.01490
Br563      Br  0.98284934  0.44291743  0.66147246    -0.01450
Br564      Br  0.94700796  0.43263789  0.51999581    -0.01430
C565        C  0.49593557  0.55841179  0.82585604    -0.02560
C566        C  0.48019584  0.52114824  0.80928904     0.07120
C567        C  0.45424843  0.49446779  0.85468647    -0.02670
C568        C  0.44587804  0.50481470  0.91465593    -0.02670
C569        C  0.46246969  0.54192166  0.93161357     0.07260
C570        C  0.48784843  0.56849787  0.88601059    -0.02870
Br571      Br  0.51287490  0.61978243  0.90430688    -0.01420
Br572      Br  0.52987288  0.59728568  0.76728275    -0.01490
Br573      Br  0.41007051  0.46785299  0.97358545    -0.01450
Br574      Br  0.42638653  0.44325276  0.83349761    -0.01430
C575        C  0.44862892  0.54303052  0.62049542    -0.02560
C576        C  0.46776442  0.54956815  0.56141279     0.07120
C577        C  0.50263788  0.55369395  0.56987892    -0.02670
C578        C  0.51219868  0.54483806  0.63118916    -0.02670
C579        C  0.48460035  0.52480776  0.68009460     0.07260
C580        C  0.45038663  0.52055449  0.66751824    -0.02870
Br581      Br  0.40576159  0.48519093  0.71196496    -0.01420
Br582      Br  0.46307439  0.58818119  0.66246863    -0.01490
Br583      Br  0.56362719  0.56552444  0.64973613    -0.01450
Br584      Br  0.54038036  0.57780573  0.00515870    -0.01430
C585        C  0.50137756  0.44159435  0.82454126    -0.02560
C586        C  0.51600580  0.47893508  0.81025761     0.07120
C587        C  0.53988032  0.50510391  0.85735929    -0.02670
C588        C  0.54692000  0.49421405  0.91775356    -0.02670
C589        C  0.53165778  0.45682182  0.93270515     0.07260
C590        C  0.50775742  0.43066260  0.88547692    -0.02870
Br591      Br  0.47889745  0.37908384  0.90483400    -0.01420
Br592      Br  0.47134120  0.40369460  0.76216294    -0.01490
Br593      Br  0.58227349  0.53205489  0.97548032    -0.01450
Br594      Br  0.56916642  0.55655394  0.83605192    -0.01430
C595        C  0.56162702  0.47910795  0.60850435    -0.02560
C596        C  0.53420588  0.45858268  0.56027902     0.07120
C597        C  0.49768486  0.44880565  0.57421909    -0.02670
C598        C  0.48878861  0.45786741  0.63428684    -0.02670
C599        C  0.51619478  0.47842013  0.68224831     0.07260
C600        C  0.55240530  0.48721623  0.66925878    -0.02870
Br601      Br  0.59152586  0.51258288  0.73227361    -0.01420
Br602      Br  0.61345378  0.50157417  0.59066169    -0.01490
Br603      Br  0.43726124  0.43643568  0.65337881    -0.01450
Br604      Br  0.45755072  0.42013528  0.51427346    -0.01430
loop_ 
_geom_bond_atom_site_label_1 
_geom_bond_atom_site_label_2 
_geom_bond_distance 
_geom_bond_site_symmetry_2 
_ccdc_geom_bond_type 
C1            C2   1.404       .  D
C1          C264   1.557       .  S
C1          C277   1.549       .  S
C2          C284   1.535       .  S
C2          C297   1.540       .  S
C3            C4   1.407   1_655  D
C3          C244   1.537       .  S
C3          C257   1.540       .  S
C4          C227   1.538       .  S
C4          C234   1.538       .  S
O5           C20   1.254       .  A
O5          Al13   1.893       .  S
C6           O16   1.257       .  A
C6            O7   1.257       .  A
C6          C164   1.489       .  S
O7           Al9   1.872       .  S
O8           C10   1.255       .  A
O8           Al9   1.890       .  S
Al9          O17   1.881       .  S
Al9          O19   1.868       .  S
Al9          O18   1.793       .  S
C10          O23   1.258       .  A
C10         C204   1.493       .  S
O11          C21   1.255       .  A
O11         Al13   1.899       .  S
O12          C25   1.256       .  A
O12         Al22   1.895       .  S
Al13         O26   1.880       .  S
Al13         O23   1.882       .  S
Al13         O18   1.802       .  S
O14          C21   1.257       .  A
O14         Al22   1.885       .  S
O15          C24   1.258       .  A
O15         Al22   1.892       .  S
O16         Al22   1.898       .  S
O17          C24   1.255       .  A
O18         Al22   1.805       .  S
O19          C20   1.254       .  A
C20         C214   1.494       .  S
C21         C184   1.503       .  S
C24         C174   1.492       .  S
C25          O26   1.258       .  A
C25         C194   1.489       .  S
C27          C28   1.406       .  D
C27         C237   1.539       .  S
C27         C526   1.541   1_554  S
C28         C207   1.523       .  S
C28         C519   1.518   1_554  S
C29          C30   1.410       .  D
C29         C274   1.568   1_556  S
C29         C569   1.547       .  S
C30         C187   1.511   1_556  S
C30         C499   1.519       .  S
C31          C32   1.409       .  D
C31         C177   1.529       .  S
C31         C469   1.529       .  S
C32         C144   1.544       .  S
C32         C459   1.544       .  S
C33          C34   1.408   1_565  D
C33         C147   1.552       .  S
C33         C154   1.558       .  S
C34         C124   1.563       .  S
C34         C134   1.557       .  S
O35          C50   1.257       .  A
O35         Al43   1.887       .  S
C36          O46   1.261       .  A
C36          O37   1.261       .  A
C36         C114   1.466       .  S
O37         Al39   1.895       .  S
O38          C40   1.255       .  A
O38         Al39   1.894       .  S
Al39         O47   1.886       .  S
Al39         O49   1.925       .  S
Al39         O48   1.803       .  S
C40          O53   1.257       .  A
C40          C97   1.496       .  S
O41          C51   1.254       .  A
O41         Al43   1.880       .  S
O42          C55   1.258       .  A
O42         Al52   1.910       .  S
Al43         O56   1.869       .  S
Al43         O53   1.885       .  S
Al43         O48   1.782       .  S
O44          C51   1.262       .  A
O44         Al52   1.905       .  S
O45          C54   1.262       .  A
O45         Al52   1.904       .  S
O46         Al52   1.897       .  S
O47          C54   1.255       .  A
O48         Al52   1.798       .  S
O49          C50   1.266       .  A
C50          C84   1.497       .  S
C51          C64   1.499       .  S
C54         C104   1.482       .  S
C55          O56   1.256       .  A
C55          C74   1.500       .  S
C57          C58   1.402       .  D
C57         C287   1.537       .  S
C57         C596   1.540       .  S
C58         C107   1.515       .  S
C58         C419   1.522       .  S
C59          C60   1.401       .  D
C59         C137   1.530       .  S
C59         C429   1.550   1_554  S
C60          C94   1.539       .  S
C60         C389   1.520   1_554  S
C61          C62   1.408       .  D
C61         C254   1.542       .  S
C61         C549   1.541   1_554  S
C62          C67   1.521       .  S
C62         C379   1.523   1_554  S
C63          C64   1.423       .  A
C63          C68   1.410       .  A
C63         Br70   1.942       .  S
C64          C65   1.408       .  A
C65          C66   1.407       .  A
C65         Br72   1.935       .  S
C66          C67   1.429       .  A
C66        Br373   1.932       .  S
C67          C68   1.417       .  A
C68         Br69   1.928       .  S
Br71        C368   1.932       .  S
C73          C74   1.425       .  A
C73          C78   1.417       .  A
C73         Br80   1.939       .  S
C74          C75   1.413       .  A
C75          C76   1.404       .  A
C75         Br82   1.944       .  S
C76          C77   1.429       .  A
C76         Br81   1.932       .  S
C77         C364   1.523       .  S
C77          C78   1.417       .  A
C78         Br79   1.931       .  S
C83          C84   1.420       .  A
C83          C88   1.411       .  A
C83         Br90   1.941       .  S
C84          C85   1.407       .  A
C85          C86   1.406       .  A
C85         Br92   1.920       .  S
C86          C87   1.420       .  A
C86         Br91   1.932       .  S
C87         C362   1.520       .  S
C87          C88   1.418       .  A
C88         Br89   1.915       .  S
C93          C94   1.415       .  A
C93          C98   1.406       .  A
C93        Br100   1.910       .  S
C94          C95   1.420       .  A
C95          C96   1.410       .  A
C95        Br404   1.921       .  S
C96          C97   1.414       .  A
C96        Br101   1.930       .  S
C97          C98   1.419       .  A
C98         Br99   1.944       .  S
Br102       C397   1.921       .  S
C103        C104   1.412       .  A
C103        C108   1.411       .  A
C103       Br110   1.934       .  S
C104        C105   1.406       .  A
C105        C106   1.401       .  A
C105       Br112   1.931       .  S
C106        C107   1.427       .  A
C106       Br111   1.935       .  S
C107        C108   1.419       .  A
C108       Br109   1.926       .  S
C113        C114   1.388       .  A
C113        C118   1.393       .  A
C113       Br120   1.929       .  S
C114        C115   1.410       .  A
C115        C116   1.415       .  A
C115       Br122   1.928       .  S
C116        C117   1.425       .  A
C116       Br121   1.926       .  S
C117        C360   1.522   1_554  S
C117        C118   1.431       .  A
C118       Br421   1.927   1_554  S
Br119       C420   1.927       .  S
C123        C124   1.419       .  A
C123        C128   1.418       .  A
C123       Br130   1.912       .  S
C124        C125   1.431       .  A
C125        C126   1.419       .  A
C125       Br132   1.910       .  S
C126        C127   1.420       .  A
C126       Br131   1.920       .  S
C127        C361   1.550       .  S
C127        C128   1.423       .  A
C128       Br129   1.916       .  S
C133        C134   1.428       .  A
C133        C138   1.424       .  A
C133       Br140   1.914       .  S
C134        C135   1.430       .  A
C135        C136   1.413       .  A
C135       Br142   1.911       .  S
C136        C137   1.413       .  A
C136       Br141   1.928       .  S
C137        C138   1.418       .  A
C138       Br139   1.920       .  S
C143        C144   1.420       .  A
C143        C148   1.418       .  A
C143       Br150   1.919       .  S
C144        C145   1.423       .  A
C145        C146   1.419       .  A
C145       Br152   1.918       .  S
C146        C147   1.418       .  A
C146       Br151   1.915       .  S
C147        C148   1.426       .  A
C148       Br149   1.914       .  S
C153        C154   1.428       .  A
C153        C158   1.419       .  A
C153       Br160   1.910       .  S
C154        C155   1.420       .  A
C155        C156   1.418       .  A
C155       Br162   1.915       .  S
C156        C157   1.420       .  A
C156       Br161   1.919       .  S
C157        C334   1.544       .  S
C157        C158   1.419       .  A
C158       Br159   1.919       .  S
C163        C164   1.404       .  A
C163        C168   1.404       .  A
C163       Br170   1.934       .  S
C164        C165   1.416       .  A
C165        C166   1.414       .  A
C165       Br172   1.942       .  S
C166        C167   1.423       .  A
C166       Br171   1.912       .  S
C167        C333   1.529       .  S
C167        C168   1.427       .  A
C168       Br471   1.924       .  S
Br169       C470   1.924       .  S
C173        C174   1.417       .  A
C173        C178   1.409       .  A
C173       Br180   1.945       .  S
C174        C175   1.407       .  A
C175        C176   1.409       .  A
C175       Br182   1.935       .  S
C176        C177   1.428       .  A
C176       Br181   1.925       .  S
C177        C178   1.421       .  A
C178       Br179   1.910       .  S
C183        C184   1.427       .  A
C183        C188   1.415       .  A
C183       Br190   1.937       .  S
C184        C185   1.417       .  A
C185        C186   1.405       .  A
C185       Br192   1.941       .  S
C186        C187   1.413       .  A
C186       Br191   1.914   1_554  S
C187        C188   1.415       .  A
C188       Br189   1.931       .  S
C193        C194   1.423       .  A
C193        C198   1.401       .  A
C193       Br200   1.932       .  S
C194        C195   1.416       .  A
C195        C196   1.404       .  A
C195       Br202   1.925       .  S
C196        C197   1.412       .  A
C196       Br503   1.916       .  S
C197        C332   1.519       .  S
C197        C198   1.391       .  A
C198       Br199   1.887       .  S
Br201       C498   1.916       .  S
C203        C204   1.422       .  A
C203        C208   1.412       .  A
C203       Br210   1.940       .  S
C204        C205   1.409       .  A
C205        C206   1.405       .  A
C205       Br212   1.939       .  S
C206        C207   1.429       .  A
C206       Br513   1.932       .  S
C207        C208   1.418       .  A
C208       Br209   1.928       .  S
Br211       C508   1.932       .  S
C213        C214   1.423       .  A
C213        C218   1.412       .  A
C213       Br220   1.941       .  S
C214        C215   1.412       .  A
C215        C216   1.403       .  A
C215       Br222   1.942       .  S
C216        C217   1.428       .  A
C216       Br221   1.933       .  S
C217        C330   1.518       .  S
C217        C218   1.417       .  A
C218       Br219   1.929       .  S
C223        C224   1.424       .  A
C223        C228   1.419       .  A
C223       Br230   1.924       .  S
C224        C329   1.541       .  S
C224        C225   1.423       .  A
C225        C226   1.417       .  A
C225       Br232   1.927       .  S
C226        C227   1.422       .  A
C226       Br231   1.928       .  S
C227        C228   1.420       .  A
C228       Br229   1.934   1_455  S
C233        C234   1.423       .  A
C233        C238   1.416       .  A
C233       Br240   1.928       .  S
C234        C235   1.419       .  A
C235        C236   1.418       .  A
C235       Br242   1.937       .  S
C236        C237   1.426       .  A
C236       Br241   1.924       .  S
C237        C238   1.422       .  A
C238       Br239   1.929       .  S
C243        C244   1.420       .  A
C243        C248   1.416       .  A
C243       Br250   1.927       .  S
C244        C245   1.419       .  A
C245        C246   1.419       .  A
C245       Br252   1.935   1_655  S
C246        C247   1.426       .  A
C246       Br553   1.924       .  S
C247        C363   1.541       .  S
C247        C248   1.423       .  A
C248       Br249   1.927       .  S
Br251       C548   1.924       .  S
C253        C254   1.422       .  A
C253        C258   1.418       .  A
C253       Br260   1.928       .  S
C254        C255   1.426       .  A
C255        C256   1.419       .  A
C255       Br262   1.923       .  S
C256        C257   1.420       .  A
C256       Br261   1.937       .  S
C257        C258   1.424       .  A
C258       Br259   1.929       .  S
C263        C264   1.423       .  A
C263        C268   1.424       .  A
C263       Br270   1.935       .  S
C264        C265   1.432       .  A
C265        C266   1.431       .  A
C265       Br272   1.925       .  S
C266        C267   1.414       .  A
C266       Br271   1.929       .  S
C267        C331   1.547       .  S
C267        C268   1.424       .  A
C268       Br269   1.921       .  S
C273        C274   1.410       .  A
C273        C278   1.406       .  A
C273       Br280   1.924       .  S
C274        C275   1.431       .  A
C275        C276   1.440       .  A
C275       Br584   1.913       .  S
C276        C277   1.434       .  A
C276       Br281   1.926       .  S
C277        C278   1.413       .  A
C278       Br279   1.917       .  S
Br282       C577   1.913       .  S
C283        C284   1.420       .  A
C283        C288   1.416       .  A
C283       Br290   1.929       .  S
C284        C285   1.421       .  A
C285        C286   1.417       .  A
C285       Br292   1.930       .  S
C286        C287   1.420       .  A
C286       Br291   1.926       .  S
C287        C288   1.422       .  A
C288       Br289   1.926       .  S
C293        C294   1.423       .  A
C293        C298   1.418       .  A
C293       Br300   1.929       .  S
C294        C359   1.540   1_554  S
C294        C295   1.425       .  A
C295        C296   1.417       .  A
C295       Br302   1.926       .  S
C296        C297   1.419       .  A
C296       Br301   1.929       .  S
C297        C298   1.422       .  A
C298       Br299   1.925       .  S
C303        C304   1.404       .  D
C303        C566   1.557       .  S
C303        C579   1.549       .  S
C304        C586   1.535       .  S
C304        C599   1.540       .  S
C305        C306   1.407   1_655  D
C305        C546   1.537       .  S
C305        C559   1.541       .  S
C306        C529   1.539       .  S
C306        C536   1.537       .  S
O307        C322   1.254       .  A
O307       Al315   1.893       .  S
C308        O318   1.256       .  A
C308        O309   1.256       .  A
C308        C466   1.489       .  S
O309       Al311   1.871       .  S
O310        C312   1.255       .  A
O310       Al311   1.889       .  S
Al311       O319   1.882       .  S
Al311       O321   1.868       .  S
Al311       O320   1.794       .  S
C312        O325   1.258       .  A
C312        C506   1.492       .  S
O313        C323   1.255       .  A
O313       Al315   1.899       .  S
O314        C327   1.256       .  A
O314       Al324   1.894       .  S
Al315       O328   1.880       .  S
Al315       O325   1.881       .  S
Al315       O320   1.803       .  S
O316        C323   1.257       .  A
O316       Al324   1.885       .  S
O317        C326   1.258       .  A
O317       Al324   1.891       .  S
O318       Al324   1.898       .  S
O319        C326   1.255       .  A
O320       Al324   1.806       .  S
O321        C322   1.254       .  A
C322        C516   1.493       .  S
C323        C486   1.503       .  S
C326        C476   1.492       .  S
C327        O328   1.257       .  A
C327        C496   1.489       .  S
C329        C330   1.406       .  D
C329        C539   1.539       .  S
C330        C509   1.523       .  S
C331        C332   1.410       .  D
C331        C576   1.568       .  S
C332        C489   1.511       .  S
C333        C334   1.409       .  D
C333        C479   1.529   1_554  S
C334        C446   1.544   1_554  S
C335        C336   1.408   1_565  D
C335        C449   1.552       .  S
C335        C456   1.558       .  S
C336        C426   1.564       .  S
C336        C436   1.557       .  S
O337        C352   1.257       .  A
O337       Al345   1.887       .  S
C338        O348   1.261       .  A
C338        O339   1.261       .  A
C338        C416   1.466       .  S
O339       Al341   1.895       .  S
O340        C342   1.255       .  A
O340       Al341   1.893       .  S
Al341       O349   1.886       .  S
Al341       O351   1.925       .  S
Al341       O350   1.803       .  S
C342        O355   1.257       .  A
C342        C399   1.496       .  S
O343        C353   1.254       .  A
O343       Al345   1.880       .  S
O344        C357   1.258       .  A
O344       Al354   1.910       .  S
Al345       O358   1.869       .  S
Al345       O355   1.885       .  S
Al345       O350   1.782       .  S
O346        C353   1.262       .  A
O346       Al354   1.905       .  S
O347        C356   1.262       .  A
O347       Al354   1.904       .  S
O348       Al354   1.897       .  S
O349        C356   1.255       .  A
O350       Al354   1.798       .  S
O351        C352   1.267       .  A
C352        C386   1.497       .  S
C353        C366   1.498       .  S
C356        C406   1.482       .  S
C357        O358   1.256       .  A
C357        C376   1.500       .  S
C359        C360   1.402       .  D
C359        C589   1.537       .  S
C360        C409   1.515       .  S
C361        C362   1.401       .  D
C361        C439   1.530       .  S
C362        C396   1.539       .  S
C363        C364   1.408       .  D
C363        C556   1.543       .  S
C364        C369   1.521       .  S
C365        C366   1.423       .  A
C365        C370   1.410       .  A
C365       Br372   1.942       .  S
C366        C367   1.408       .  A
C367        C368   1.407       .  A
C367       Br374   1.935       .  S
C368        C369   1.429       .  A
C369        C370   1.417       .  A
C370       Br371   1.928       .  S
C375        C376   1.425       .  A
C375        C380   1.417       .  A
C375       Br382   1.939       .  S
C376        C377   1.413       .  A
C377        C378   1.404       .  A
C377       Br384   1.944       .  S
C378        C379   1.429       .  A
C378       Br383   1.932   1_556  S
C379        C380   1.417       .  A
C380       Br381   1.931       .  S
C385        C386   1.420       .  A
C385        C390   1.411       .  A
C385       Br392   1.941       .  S
C386        C387   1.407       .  A
C387        C388   1.406       .  A
C387       Br394   1.920       .  S
C388        C389   1.420       .  A
C388       Br393   1.932   1_556  S
C389        C390   1.418       .  A
C390       Br391   1.915       .  S
C395        C396   1.415       .  A
C395        C400   1.406       .  A
C395       Br402   1.909       .  S
C396        C397   1.420       .  A
C397        C398   1.410       .  A
C398        C399   1.414       .  A
C398       Br403   1.930       .  S
C399        C400   1.419       .  A
C400       Br401   1.944       .  S
C405        C406   1.412       .  A
C405        C410   1.411       .  A
C405       Br412   1.934       .  S
C406        C407   1.406       .  A
C407        C408   1.401       .  A
C407       Br414   1.931       .  S
C408        C409   1.427       .  A
C408       Br413   1.935       .  S
C409        C410   1.419       .  A
C410       Br411   1.926       .  S
C415        C416   1.388       .  A
C415        C420   1.393       .  A
C415       Br422   1.929       .  S
C416        C417   1.410       .  A
C417        C418   1.415       .  A
C417       Br424   1.928       .  S
C418        C419   1.425       .  A
C418       Br423   1.926       .  S
C419        C420   1.431       .  A
C425        C426   1.420       .  A
C425        C430   1.418       .  A
C425       Br432   1.912       .  S
C426        C427   1.431       .  A
C427        C428   1.419       .  A
C427       Br434   1.910       .  S
C428        C429   1.420       .  A
C428       Br433   1.920       .  S
C429        C430   1.423       .  A
C430       Br431   1.916       .  S
C435        C436   1.428       .  A
C435        C440   1.424       .  A
C435       Br442   1.914       .  S
C436        C437   1.430       .  A
C437        C438   1.413       .  A
C437       Br444   1.910       .  S
C438        C439   1.413       .  A
C438       Br443   1.928       .  S
C439        C440   1.418       .  A
C440       Br441   1.920       .  S
C445        C446   1.420       .  A
C445        C450   1.418       .  A
C445       Br452   1.919       .  S
C446        C447   1.423       .  A
C447        C448   1.419       .  A
C447       Br454   1.918       .  S
C448        C449   1.418       .  A
C448       Br453   1.915       .  S
C449        C450   1.426       .  A
C450       Br451   1.914       .  S
C455        C456   1.428       .  A
C455        C460   1.419       .  A
C455       Br462   1.910       .  S
C456        C457   1.420       .  A
C457        C458   1.418       .  A
C457       Br464   1.915       .  S
C458        C459   1.420       .  A
C458       Br463   1.919       .  S
C459        C460   1.419       .  A
C460       Br461   1.919       .  S
C465        C466   1.403       .  A
C465        C470   1.404       .  A
C465       Br472   1.934       .  S
C466        C467   1.416       .  A
C467        C468   1.414       .  A
C467       Br474   1.942       .  S
C468        C469   1.423       .  A
C468       Br473   1.912       .  S
C469        C470   1.427       .  A
C475        C476   1.417       .  A
C475        C480   1.409       .  A
C475       Br482   1.945       .  S
C476        C477   1.407       .  A
C477        C478   1.408       .  A
C477       Br484   1.935       .  S
C478        C479   1.428       .  A
C478       Br483   1.925       .  S
C479        C480   1.421       .  A
C480       Br481   1.910       .  S
C485        C486   1.427       .  A
C485        C490   1.415       .  A
C485       Br492   1.937       .  S
C486        C487   1.417       .  A
C487        C488   1.405       .  A
C487       Br494   1.941       .  S
C488        C489   1.414       .  A
C488       Br493   1.914       .  S
C489        C490   1.415       .  A
C490       Br491   1.931       .  S
C495        C496   1.423       .  A
C495        C500   1.401       .  A
C495       Br502   1.932       .  S
C496        C497   1.416       .  A
C497        C498   1.404       .  A
C497       Br504   1.925       .  S
C498        C499   1.412       .  A
C499        C500   1.391       .  A
C500       Br501   1.887       .  S
C505        C506   1.422       .  A
C505        C510   1.412       .  A
C505       Br512   1.940       .  S
C506        C507   1.408       .  A
C507        C508   1.405       .  A
C507       Br514   1.939       .  S
C508        C509   1.429       .  A
C509        C510   1.418       .  A
C510       Br511   1.928       .  S
C515        C516   1.423       .  A
C515        C520   1.412       .  A
C515       Br522   1.941       .  S
C516        C517   1.411       .  A
C517        C518   1.403       .  A
C517       Br524   1.942       .  S
C518        C519   1.428       .  A
C518       Br523   1.933   1_556  S
C519        C520   1.417       .  A
C520       Br521   1.929       .  S
C525        C526   1.425       .  A
C525        C530   1.419       .  A
C525       Br532   1.924       .  S
C526        C527   1.423       .  A
C527        C528   1.417       .  A
C527       Br534   1.927       .  S
C528        C529   1.422       .  A
C528       Br533   1.928       .  S
C529        C530   1.420       .  A
C530       Br531   1.934   1_455  S
C535        C536   1.423       .  A
C535        C540   1.416       .  A
C535       Br542   1.928       .  S
C536        C537   1.419       .  A
C537        C538   1.418       .  A
C537       Br544   1.937       .  S
C538        C539   1.426       .  A
C538       Br543   1.924       .  S
C539        C540   1.422       .  A
C540       Br541   1.929       .  S
C545        C546   1.420       .  A
C545        C550   1.416       .  A
C545       Br552   1.927       .  S
C546        C547   1.419       .  A
C547        C548   1.419       .  A
C547       Br554   1.935   1_655  S
C548        C549   1.426       .  A
C549        C550   1.423       .  A
C550       Br551   1.927       .  S
C555        C556   1.422       .  A
C555        C560   1.418       .  A
C555       Br562   1.928       .  S
C556        C557   1.426       .  A
C557        C558   1.419       .  A
C557       Br564   1.923       .  S
C558        C559   1.420       .  A
C558       Br563   1.937       .  S
C559        C560   1.424       .  A
C560       Br561   1.929       .  S
C565        C566   1.423       .  A
C565        C570   1.424       .  A
C565       Br572   1.935       .  S
C566        C567   1.432       .  A
C567        C568   1.431       .  A
C567       Br574   1.925       .  S
C568        C569   1.414       .  A
C568       Br573   1.929       .  S
C569        C570   1.424       .  A
C570       Br571   1.921       .  S
C575        C576   1.410       .  A
C575        C580   1.406       .  A
C575       Br582   1.924       .  S
C576        C577   1.431       .  A
C577        C578   1.440       .  A
C578        C579   1.434       .  A
C578       Br583   1.926       .  S
C579        C580   1.413       .  A
C580       Br581   1.917       .  S
C585        C586   1.420       .  A
C585        C590   1.416       .  A
C585       Br592   1.929       .  S
C586        C587   1.421       .  A
C587        C588   1.417       .  A
C587       Br594   1.930       .  S
C588        C589   1.420       .  A
C588       Br593   1.926       .  S
C589        C590   1.422       .  A
C590       Br591   1.926       .  S
C595        C596   1.423       .  A
C595        C600   1.418       .  A
C595       Br602   1.929       .  S
C596        C597   1.425       .  A
C597        C598   1.417       .  A
C597       Br604   1.926       .  S
C598        C599   1.419       .  A
C598       Br603   1.929       .  S
C599        C600   1.422       .  A
C600       Br601   1.925       .  S
