geometry optimzed in LAMMPS
_audit_creation_date              2020-12-01 
_audit_creation_method            'lammps2cif' 
_symmetry_space_group_name_H-M    'P1' 
_symmetry_Int_Tables_number       1 
_symmetry_cell_setting            triclinic 
loop_ 
_symmetry_equiv_pos_as_xyz 
  x,y,z 
_cell_length_a                    30.02519886 
_cell_length_b                    31.16012548456934 
_cell_length_c                    38.112470705753175 
_cell_angle_alpha                 102.59525536300455 
_cell_angle_beta                  89.5690716768303 
_cell_angle_gamma                 121.08888515131827 
loop_ 
_atom_site_label 
_atom_site_type_symbol 
_atom_site_fract_x 
_atom_site_fract_y 
_atom_site_fract_z 
_atom_site_charge 
N1          N  0.85894922  0.39867928  0.33577907    -0.03200
C2          C  0.91088486  0.42241202  0.33135884    -0.00600
C3          C  0.94082974  0.44813058  0.03184224    -0.23500
C4          C  0.90689174  0.43775714  0.05734298    -0.23700
C5          C  0.85719165  0.40680050  0.03876747    -0.00700
H6          H  0.98256641  0.47185827  0.03856949     0.13100
H7          H  0.91742301  0.44969393  0.08643326     0.13100
N8          N  0.44524966  0.98464868  0.29812066    -0.03200
C9          C  0.43556762  0.98674231  0.26400490    -0.00600
C10         C  0.40162939  0.93773424  0.24268966    -0.23500
C11         C  0.39070120  0.90416599  0.26409014    -0.23700
C12         C  0.41933817  0.93351005  0.29798478    -0.00700
H13         H  0.38750124  0.92736561  0.21425530     0.13100
H14         H  0.36421471  0.86298838  0.25490463     0.13100
N15         N  0.43991809  0.38155764  0.33168999    -0.03200
C16         C  0.42673815  0.36545680  0.02926849    -0.00600
C17         C  0.39092242  0.37725890  0.04355036    -0.23500
C18         C  0.38284277  0.40244914  0.02121203    -0.23700
C19         C  0.41496321  0.40657262  0.32737330    -0.00700
H20         H  0.37448101  0.37067365  0.06860652     0.13100
H21         H  0.35635869  0.41619883  0.02544915     0.13100
Fe22       Fe  0.50618796  0.21663790  0.15368638     1.65800
Fe23       Fe  0.62179677  0.22280752  0.15675708     1.73200
Fe24       Fe  0.61996124  0.33365936  0.17453022     1.54400
O25         O  0.57935826  0.33434532  0.13108332    -0.81400
O26         O  0.68007008  0.27771857  0.19906748    -0.79700
O27         O  0.49958538  0.26510055  0.12765006    -0.83900
O28         O  0.50097516  0.25547675  0.20305963    -0.78800
O29         O  0.67776644  0.34068242  0.14227753    -0.80500
O30         O  0.58232506  0.18118803  0.19340402    -0.83300
C31         C  0.52523858  0.30349273  0.21837945     0.97500
C32         C  0.53099224  0.30664740  0.11871137     1.04900
O33         O  0.58266384  0.25784755  0.16182575    -1.12300
O34         O  0.56983747  0.16193562  0.11378330    -0.74700
O35         O  0.50574059  0.17508892  0.10354792    -0.78200
O36         O  0.56697242  0.33657839  0.20833408    -0.78900
C37         C  0.52961023  0.15148354  0.09438660     0.96400
O38         O  0.50118098  0.16164142  0.17842895    -0.76800
O39         O  0.66333538  0.26165803  0.11952115    -0.82000
C40         C  0.68872327  0.31804211  0.22241692     0.99000
C41         C  0.68657416  0.30943741  0.12059168     1.04900
O42         O  0.66407076  0.34034881  0.21930668    -0.77700
C43         C  0.53336149  0.15546797  0.19478833     1.03200
N44         N  0.98454330  0.44614289  0.29137880    -0.03200
C45         C  0.98615061  0.43840928  0.25507172    -0.00600
C46         C  0.93652189  0.40578141  0.23654501    -0.23500
C47         C  0.90275008  0.39370897  0.26216097    -0.23700
C48         C  0.93268798  0.42049506  0.29591623    -0.00700
H49         H  0.92588449  0.39344775  0.20745827     0.13100
H50         H  0.86102696  0.36807480  0.25569357     0.13100
N51         N  0.39602005  0.86099696  0.32910288    -0.03200
C52         C  0.40562810  0.85948042  0.03008052    -0.00600
C53         C  0.43843691  0.90840044  0.05161623    -0.23500
C54         C  0.44922146  0.94169670  0.03015769    -0.23700
C55         C  0.42134760  0.91216804  0.32933010    -0.00700
H56         H  0.45218796  0.91881837  0.08013156     0.13100
H57         H  0.47522773  0.98279095  0.03968914     0.13100
N58         N  0.39811349  0.46109214  0.29447418    -0.03200
C59         C  0.41289065  0.47872432  0.26423012    -0.00600
C60         C  0.44865031  0.46677779  0.25007642    -0.23500
C61         C  0.45483851  0.43966791  0.27157681    -0.23700
C62         C  0.42203963  0.43495617  0.29835032    -0.00700
H63         H  0.46611223  0.47435743  0.22546901     0.13100
H64         H  0.48089887  0.42544565  0.26714515     0.13100
Fe65       Fe  0.22268689  0.51342294  0.11969222     1.65800
Fe66       Fe  0.33737685  0.62924629  0.13988750     1.73200
Fe67       Fe  0.22254845  0.62437589  0.13712180     1.54400
O68         O  0.16319147  0.56917925  0.09537551    -0.81400
O69         O  0.33929196  0.67092273  0.19016175    -0.79700
O70         O  0.18081657  0.50801488  0.07431943    -0.83900
O71         O  0.16404041  0.50728068  0.15094130    -0.78800
O72         O  0.26197566  0.66347803  0.09927406    -0.80500
O73         O  0.34293137  0.57980205  0.16532240    -0.83300
C74         C  0.15620969  0.53876553  0.17328710     0.97500
C75         C  0.15541360  0.52964067  0.07149917     1.04900
O76         O  0.26087786  0.58890591  0.13238672    -1.12300
O77         O  0.34090050  0.59014289  0.09007221    -0.74700
O78         O  0.27593311  0.50923696  0.08679588    -0.78200
O79         O  0.18073716  0.58680650  0.17496146    -0.78900
C80         C  0.31676807  0.54187229  0.07569905     0.96400
O81         O  0.26203398  0.51288012  0.16379648    -0.76800
O82         O  0.34317171  0.68528819  0.11608988    -0.82000
C83         C  0.31581199  0.69488793  0.19928886     0.99000
C84         C  0.31101785  0.69026025  0.09858824     1.04900
O85         O  0.27593340  0.68530741  0.17981119    -0.77700
C86         C  0.31070767  0.53944170  0.17528247     1.03200
C87         C  0.36035489  0.55524396  0.23394273    -0.01600
C88         C  0.33198286  0.52205860  0.20000988     0.08100
C89         C  0.32912256  0.47461834  0.18790325    -0.01700
C90         C  0.35391094  0.46003443  0.20971797    -0.01700
C91         C  0.38434167  0.49411943  0.24309016     0.08200
C92         C  0.38802523  0.54222004  0.25484696    -0.01900
Br93       Br  0.43450424  0.59275533  0.29741166    -0.00400
Br94       Br  0.36068861  0.61837025  0.25199554    -0.00500
Br95       Br  0.34517402  0.39250760  0.19353938    -0.00500
Br96       Br  0.29472342  0.43127716  0.14001399    -0.00500
C97         C  0.41083921  0.51808184  0.02108943    -0.01600
C98         C  0.37734686  0.48185997  0.98935551     0.08100
C99         C  0.32409859  0.46601879  0.98581767    -0.01700
C100        C  0.30450191  0.48707786  0.01348419    -0.01700
C101        C  0.33775927  0.52242427  0.04552274     0.08200
C102        C  0.39086558  0.53740044  0.04938964    -0.01900
Br103      Br  0.43591137  0.58171051  0.09430931    -0.00400
Br104      Br  0.48455425  0.54185440  0.02574368     0.00300
Br105      Br  0.23250026  0.46857837  0.00665628    -0.00500
Br106      Br  0.27754052  0.41328096  0.27744761    -0.00500
C107        C  0.41027641  0.81399887  0.27334858    -0.01600
C108        C  0.37583286  0.81749817  0.29766509     0.08100
C109        C  0.32171393  0.78000392  0.28968646    -0.01700
C110        C  0.30241549  0.73848024  0.25854600    -0.01700
C111        C  0.33649698  0.73628617  0.23350483     0.08200
C112        C  0.39055237  0.77459362  0.24094420    -0.01900
Br113      Br  0.43747924  0.77611286  0.20554547    -0.00400
Br114      Br  0.48446039  0.86526545  0.28332058    -0.00500
Br115      Br  0.22944804  0.68359723  0.25118029    -0.00500
Br116      Br  0.27295874  0.78810357  0.31888896    -0.00500
C117        C  0.37412027  0.73820793  0.05770114    -0.01600
C118        C  0.33210811  0.73046302  0.07808092     0.08100
C119        C  0.31384497  0.76474224  0.08174633    -0.01700
C120        C  0.33806814  0.80676676  0.06582218    -0.01700
C121        C  0.37905771  0.81358520  0.04485792     0.08200
C122        C  0.39812324  0.78034698  0.04178728    -0.01900
Br123      Br  0.46095893  0.79612030  0.01960114    -0.00400
Br124      Br  0.39891302  0.69106728  0.05074099    -0.00500
Br125      Br  0.31770660  0.85755753  0.07529279    -0.00500
Br126      Br  0.25835710  0.75741557  0.11082447    -0.00500
C127        C  0.06502542  0.52072140  0.99656301    -0.01600
C128        C  0.02912657  0.46701781  0.98497429     0.08100
C129        C  0.03591805  0.43348564  0.00086539    -0.01700
C130        C  0.07803126  0.45351943  0.02816391    -0.01700
C131        C  0.11417103  0.50761584  0.03992608     0.08200
C132        C  0.10813587  0.54086794  0.02301175    -0.01900
Br133      Br  0.15998164  0.61415396  0.03451098    -0.00400
Br134      Br  0.05181184  0.56705819  0.97917726    -0.00500
Br135      Br  0.08335424  0.40610860  0.05059408    -0.00500
Br136      Br  0.98510200  0.35991065  0.98678580    -0.00500
C137        C  0.11397731  0.48132402  0.21513536    -0.01600
C138        C  0.11598672  0.51766087  0.19754173     0.08100
C139        C  0.07656075  0.52971136  0.20051571    -0.01700
C140        C  0.03516212  0.50497131  0.22054254    -0.01700
C141        C  0.03243433  0.46739536  0.23708571     0.08200
C142        C  0.07128849  0.45488921  0.23361884    -0.01900
Br143      Br  0.06337229  0.39742900  0.25007463    -0.00400
Br144      Br  0.17007689  0.46793341  0.21477555    -0.00500
Br145      Br  0.98087531  0.52122787  0.22390398    -0.00500
Br146      Br  0.07626667  0.57675843  0.17489133    -0.00500
C147        C  0.47817226  0.28883725  0.06077261    -0.01600
C148        C  0.50916479  0.32355748  0.09370659     0.08100
C149        C  0.51473616  0.37252076  0.10432969    -0.01700
C150        C  0.48905629  0.38636740  0.08250562    -0.01700
C151        C  0.45623708  0.35083807  0.05028646     0.08200
C152        C  0.45072685  0.30185272  0.03963763    -0.01900
Br153      Br  0.40240258  0.25050787  0.33138798    -0.00400
Br154      Br  0.47403637  0.22355323  0.04407669    -0.00500
Br155      Br  0.49922606  0.45465445  0.09711579    -0.00500
Br156      Br  0.55434146  0.41953225  0.15021274    -0.00500
C157        C  0.51536054  0.37955554  0.30729159    -0.01600
C158        C  0.46154259  0.36127880  0.30387654     0.08100
C159        C  0.42852944  0.32376904  0.27243730    -0.01700
C160        C  0.44954649  0.30549947  0.24429426    -0.01700
C161        C  0.50317552  0.32209334  0.24837326     0.08200
C162        C  0.53587563  0.35860763  0.28031018    -0.01900
Br163      Br  0.60831636  0.37884568  0.28815379    -0.00400
Br164      Br  0.56141697  0.43652143  0.01390325    -0.00500
Br165      Br  0.40516056  0.26100132  0.19917179    -0.00500
Br166      Br  0.35421842  0.29744388  0.26780298    -0.00500
C167        C  0.49865627  0.03411680  0.22339682    -0.01600
C168        C  0.46392311  0.03276057  0.24903075     0.08100
C169        C  0.45312470  0.07259339  0.25719297    -0.01700
C170        C  0.47880524  0.11470330  0.24133170    -0.01700
C171        C  0.51223298  0.11520630  0.21505800     0.08200
C172        C  0.52162868  0.07451212  0.20580495    -0.01900
Br173      Br  0.56169345  0.07120087  0.16645631    -0.00400
Br174      Br  0.51381640  0.97973463  0.21119694    -0.00500
Br175      Br  0.46810757  0.17182699  0.25575875    -0.00500
Br176      Br  0.39866624  0.06715409  0.28622808    -0.00500
C177        C  0.52141496  0.06212766  0.00480163    -0.01600
C178        C  0.46686690  0.02792482  0.99627033     0.08100
C179        C  0.43317760  0.03328851  0.02042651    -0.01700
C180        C  0.45376629  0.07335207  0.05238993    -0.01700
C181        C  0.50851891  0.10915316  0.06047405     0.08200
C182        C  0.54233635  0.10300987  0.03652256    -0.01900
Br183      Br  0.61735697  0.15049487  0.04629665    -0.00400
Br184      Br  0.56720476  0.04936781  0.30806489    -0.00500
Br185      Br  0.40627249  0.07551501  0.08632189    -0.00500
Br186      Br  0.35852114  0.98330740  0.01071927    -0.00500
C187        C  0.76894687  0.39327686  0.26388148    -0.01600
C188        C  0.72997719  0.33984942  0.25389830     0.08100
C189        C  0.73304424  0.30652873  0.27241888    -0.01700
C190        C  0.77612847  0.32558568  0.29859780    -0.01700
C191        C  0.81479716  0.37874852  0.30864055     0.08200
C192        C  0.81066639  0.41261078  0.29136818    -0.01900
Br193      Br  0.86372418  0.48557898  0.30446309    -0.00400
Br194      Br  0.76773324  0.44017652  0.23864511    -0.00500
Br195      Br  0.78493697  0.27791000  0.98446876    -0.00500
Br196      Br  0.67701218  0.23485155  0.26344821    -0.00500
C197        C  0.76736661  0.31955248  0.09554991    -0.01600
C198        C  0.72709090  0.33031514  0.09664743     0.08100
C199        C  0.72819264  0.36444396  0.07715395    -0.01700
C200        C  0.77122580  0.39049384  0.05878304    -0.01700
C201        C  0.81067906  0.37871793  0.05681861     0.08200
C202        C  0.80826788  0.34259191  0.07487938    -0.01900
Br203      Br  0.86150035  0.32489047  0.07203758    -0.00400
Br204      Br  0.76958807  0.27692988  0.12477691    -0.00500
Br205      Br  0.77867861  0.44643970  0.37375855    -0.00500
Br206      Br  0.67025634  0.37477375  0.07461952    -0.00500
N207        N  0.85895514  0.39867267  0.66910795    -0.03200
C208        C  0.91089139  0.42240374  0.66468899    -0.00600
C209        C  0.94083098  0.44814992  0.36517919    -0.23500
C210        C  0.90689255  0.43777246  0.39067961    -0.23700
C211        C  0.85719316  0.40681077  0.37210345    -0.00700
H212        H  0.98256782  0.47188213  0.37190670     0.13100
H213        H  0.91742321  0.44970995  0.41976998     0.13100
N214        N  0.44524314  0.98464375  0.63145479    -0.03200
C215        C  0.43556685  0.98673545  0.59733729    -0.00600
C216        C  0.40163148  0.93772668  0.57602208    -0.23500
C217        C  0.39069824  0.90416003  0.59742494    -0.23700
C218        C  0.41933073  0.93350567  0.63132074    -0.00700
H219        H  0.38750721  0.92735669  0.54758678     0.13100
H220        H  0.36421163  0.86298220  0.58824015     0.13100
N221        N  0.43991776  0.38155352  0.66501841    -0.03200
C222        C  0.42675648  0.36548180  0.36261257    -0.00600
C223        C  0.39094854  0.37729305  0.37689803    -0.23500
C224        C  0.38286777  0.40248142  0.35455847    -0.23700
C225        C  0.41495841  0.40656453  0.66070226    -0.00700
H226        H  0.37451180  0.37071329  0.40195624     0.13100
H227        H  0.35638734  0.41623522  0.35879734     0.13100
Fe228      Fe  0.50619272  0.21663629  0.48701779     1.65800
Fe229      Fe  0.62179932  0.22280307  0.49009070     1.73200
Fe230      Fe  0.61996660  0.33365585  0.50786124     1.54400
O231        O  0.57936631  0.33434032  0.46441220    -0.81400
O232        O  0.68007350  0.27771577  0.53239997    -0.79700
O233        O  0.49959129  0.26510131  0.46098296    -0.83900
O234        O  0.50097948  0.25547538  0.53639100    -0.78800
O235        O  0.67777254  0.34067656  0.47561087    -0.80500
O236        O  0.58232700  0.18118712  0.52673981    -0.83300
C237        C  0.52524253  0.30349223  0.55170876     0.97500
C238        C  0.53099948  0.30664639  0.45204259     1.04900
O239        O  0.58266813  0.25784447  0.49515824    -1.12300
O240        O  0.56983884  0.16192923  0.44711789    -0.74700
O241        O  0.50574852  0.17509008  0.43687901    -0.78200
O242        O  0.56697632  0.33657681  0.54166265    -0.78900
C243        C  0.52961488  0.15148094  0.42771929     0.96400
O244        O  0.50118337  0.16163688  0.51175924    -0.76800
O245        O  0.66333747  0.26165101  0.45285300    -0.82000
C246        C  0.68872729  0.31804001  0.55574890     0.99000
C247        C  0.68657762  0.30943066  0.45392375     1.04900
O248        O  0.66407455  0.34034661  0.55263900    -0.77700
C249        C  0.53336274  0.15546471  0.52812161     1.03200
N250        N  0.98455257  0.44613914  0.62471057    -0.03200
C251        C  0.98616156  0.43840528  0.58840367    -0.00600
C252        C  0.93653355  0.40577509  0.56987608    -0.23500
C253        C  0.90276051  0.39370097  0.59549134    -0.23700
C254        C  0.93269683  0.42048854  0.62924701    -0.00700
H255        H  0.92589728  0.39344115  0.54078919     0.13100
H256        H  0.86103770  0.36806471  0.58902361     0.13100
N257        N  0.39601229  0.86099519  0.66244256    -0.03200
C258        C  0.40561769  0.85947853  0.36340855    -0.00600
C259        C  0.43842553  0.90839781  0.38494527    -0.23500
C260        C  0.44921098  0.94169499  0.36348768    -0.23700
C261        C  0.42133816  0.91216579  0.66266813    -0.00700
H262        H  0.45217547  0.91881466  0.41346069     0.13100
H263        H  0.47521677  0.98278845  0.37302039     0.13100
N264        N  0.39810341  0.46108279  0.62780528    -0.03200
C265        C  0.41288267  0.47871968  0.59756310    -0.00600
C266        C  0.44864540  0.46677767  0.58340968    -0.23500
C267        C  0.45483360  0.43966567  0.60490794    -0.23700
C268        C  0.42203184  0.43494838  0.63168008    -0.00700
H269        H  0.46610993  0.47436216  0.55880372     0.13100
H270        H  0.48089686  0.42544715  0.60047643     0.13100
Fe271      Fe  0.22269344  0.51343263  0.45302319     1.65800
Fe272      Fe  0.33738311  0.62925627  0.47322463     1.73200
Fe273      Fe  0.22255476  0.62438532  0.47045819     1.54400
O274        O  0.16319596  0.56919089  0.42871335    -0.81400
O275        O  0.33929317  0.67092642  0.52349999    -0.79700
O276        O  0.18082252  0.50802888  0.40765260    -0.83900
O277        O  0.16404882  0.50728932  0.48427488    -0.78800
O278        O  0.26198144  0.66348621  0.43261043    -0.80500
O279        O  0.34293709  0.57980975  0.49865692    -0.83300
C280        C  0.15621881  0.53877379  0.50662205     0.97500
C281        C  0.15541781  0.52965384  0.40483557     1.04900
O282        O  0.26088426  0.58891525  0.46572147    -1.12300
O283        O  0.34091131  0.59015781  0.42340865    -0.74700
O284        O  0.27593980  0.50925093  0.42012502    -0.78200
O285        O  0.18074518  0.58681493  0.50829731    -0.78900
C286        C  0.31677766  0.54188811  0.40903171     0.96400
O287        O  0.26204007  0.51288362  0.49712440    -0.76800
O288        O  0.34317815  0.68530074  0.44942971    -0.82000
C289        C  0.31581413  0.69489256  0.53262671     0.99000
C290        C  0.31102380  0.69027027  0.43192622     1.04900
O291        O  0.27593922  0.68531613  0.51314728    -0.77700
C292        C  0.31071275  0.53944608  0.50861310     1.03200
C293        C  0.36034829  0.55524080  0.56727626    -0.01600
C294        C  0.33198551  0.52206071  0.53334003     0.08100
C295        C  0.32913022  0.47462328  0.52123105    -0.01700
C296        C  0.35391163  0.46003531  0.54304783    -0.01700
C297        C  0.38433431  0.49411567  0.57642347     0.08200
C298        C  0.38801451  0.54221458  0.58818209    -0.01900
Br299      Br  0.43448422  0.59274572  0.63075138    -0.00400
Br300      Br  0.36067665  0.61836398  0.58533070    -0.00500
Br301      Br  0.34517678  0.39250962  0.52686686    -0.00500
Br302      Br  0.29475049  0.43129367  0.47333572    -0.00500
C303        C  0.41085167  0.51810222  0.35442183    -0.01600
C304        C  0.37735875  0.48187675  0.32268916     0.08100
C305        C  0.32411005  0.46603379  0.31915154    -0.01700
C306        C  0.30451381  0.48709594  0.34681634    -0.01700
C307        C  0.33777061  0.52244279  0.37885501     0.08200
C308        C  0.39087713  0.53741936  0.38272228    -0.01900
Br309      Br  0.43592094  0.58172434  0.42764355    -0.00400
Br310      Br  0.48456791  0.54187938  0.35907466     0.00300
Br311      Br  0.23251344  0.46859962  0.33998590    -0.00500
Br312      Br  0.27753126  0.41327773  0.61077999    -0.00500
C313        C  0.41027270  0.81399947  0.60668958    -0.01600
C314        C  0.37582738  0.81749572  0.63100561     0.08100
C315        C  0.32170923  0.77999772  0.62302745    -0.01700
C316        C  0.30241274  0.73847745  0.59188479    -0.01700
C317        C  0.33649622  0.73628746  0.56684395     0.08200
C318        C  0.39055111  0.77459532  0.57428497    -0.01900
Br319      Br  0.43748076  0.77611657  0.53888802    -0.00400
Br320      Br  0.48445605  0.86526860  0.61666269    -0.00500
Br321      Br  0.22944494  0.68359415  0.58451459    -0.00500
Br322      Br  0.27295247  0.78808397  0.65223645    -0.00500
C323        C  0.37412333  0.73821600  0.39103707    -0.01600
C324        C  0.33211244  0.73047155  0.41141811     0.08100
C325        C  0.31384529  0.76474726  0.41508144    -0.01700
C326        C  0.33806159  0.80676678  0.39915236    -0.01700
C327        C  0.37904867  0.81358369  0.37818581     0.08200
C328        C  0.39811879  0.78034953  0.37511759    -0.01900
Br329      Br  0.46095028  0.79612151  0.35292581    -0.00400
Br330      Br  0.39892626  0.69108390  0.38408425    -0.00500
Br331      Br  0.31769462  0.85755355  0.40861966    -0.00500
Br332      Br  0.25836320  0.75742432  0.44416485    -0.00500
C333        C  0.06502816  0.52073169  0.32989886    -0.01600
C334        C  0.02912741  0.46702812  0.31831368     0.08100
C335        C  0.03591571  0.43349776  0.33420917    -0.01700
C336        C  0.07802958  0.45353291  0.36150709    -0.01700
C337        C  0.11417221  0.50762887  0.37326502     0.08200
C338        C  0.10813758  0.54087988  0.35634899    -0.01900
Br339      Br  0.15998131  0.61416646  0.36784907    -0.00400
Br340      Br  0.05182025  0.56706590  0.31250368    -0.00500
Br341      Br  0.08334990  0.40612533  0.38394286    -0.00500
Br342      Br  0.98509708  0.35992321  0.32013385    -0.00500
C343        C  0.11399394  0.48133561  0.54847247    -0.01600
C344        C  0.11599774  0.51766847  0.53087729     0.08100
C345        C  0.07656799  0.52971357  0.53384994    -0.01700
C346        C  0.03516970  0.50497033  0.55387611    -0.01700
C347        C  0.03244535  0.46739531  0.57041883     0.08200
C348        C  0.07130442  0.45489560  0.56695376    -0.01900
Br349      Br  0.06339487  0.39743695  0.58340798    -0.00400
Br350      Br  0.17010330  0.46795950  0.54811837    -0.00500
Br351      Br  0.98087929  0.52122180  0.55723759    -0.00500
Br352      Br  0.07626945  0.57675831  0.50822518    -0.00500
C353        C  0.47816175  0.28883687  0.39411197    -0.01600
C354        C  0.50917313  0.32356044  0.42703979     0.08100
C355        C  0.51476593  0.37253370  0.43765958    -0.01700
C356        C  0.48908537  0.38638516  0.41584029    -0.01700
C357        C  0.45625127  0.35085494  0.38362661     0.08200
C358        C  0.45072192  0.30186107  0.37297979    -0.01900
Br359      Br  0.40243474  0.25051529  0.66471112    -0.00400
Br360      Br  0.47399143  0.22353551  0.37741991    -0.00500
Br361      Br  0.49927122  0.45467886  0.43045074    -0.00500
Br362      Br  0.55440367  0.41955540  0.48353202    -0.00500
C363        C  0.51536209  0.37955516  0.64061991    -0.01600
C364        C  0.46154392  0.36127763  0.63720423     0.08100
C365        C  0.42853228  0.32376989  0.60576360    -0.01700
C366        C  0.44955129  0.30550384  0.57762005    -0.01700
C367        C  0.50317936  0.32209520  0.58170102     0.08200
C368        C  0.53587827  0.35860833  0.61363864    -0.01900
Br369      Br  0.60831900  0.37884681  0.62148294    -0.00400
Br370      Br  0.56143103  0.43654705  0.34723484    -0.00500
Br371      Br  0.40517083  0.26101584  0.53249382    -0.00500
Br372      Br  0.35422019  0.29743924  0.60112915    -0.00500
C373        C  0.49866977  0.03412117  0.55673987    -0.01600
C374        C  0.46392133  0.03275435  0.58236355     0.08100
C375        C  0.45310768  0.07257673  0.59051614    -0.01700
C376        C  0.47878577  0.11468658  0.57465433    -0.01700
C377        C  0.51223235  0.11520230  0.54839186     0.08200
C378        C  0.52164671  0.07451945  0.53915050    -0.01900
Br379      Br  0.56174656  0.07122700  0.49982119    -0.00400
Br380      Br  0.51384258  0.97974725  0.54454952    -0.00500
Br381      Br  0.46806003  0.17179348  0.58906698    -0.00500
Br382      Br  0.39863474  0.06712224  0.61954077    -0.00500
C383        C  0.52141449  0.06212356  0.33813274    -0.01600
C384        C  0.46686584  0.02792504  0.32960117     0.08100
C385        C  0.43317827  0.03329122  0.35375794    -0.01700
C386        C  0.45376904  0.07335410  0.38572161    -0.01700
C387        C  0.50852244  0.10915041  0.39380670     0.08200
C388        C  0.54233846  0.10300309  0.36985555    -0.01900
Br389      Br  0.61736047  0.15047784  0.37963323    -0.00400
Br390      Br  0.56719942  0.04936160  0.64140047    -0.00500
Br391      Br  0.40627607  0.07552256  0.41965250    -0.00500
Br392      Br  0.35852055  0.98331490  0.34405055    -0.00500
C393        C  0.76895898  0.39327290  0.59720647    -0.01600
C394        C  0.72998221  0.33984776  0.58722919     0.08100
C395        C  0.73304367  0.30652803  0.60575336    -0.01700
C396        C  0.77613020  0.32558236  0.63192928    -0.01700
C397        C  0.81480438  0.37874375  0.64196859     0.08200
C398        C  0.81067833  0.41260612  0.62469325    -0.01900
Br399      Br  0.86374068  0.48557282  0.63778438    -0.00400
Br400      Br  0.76775466  0.44016824  0.57196088    -0.00500
Br401      Br  0.78494915  0.27792017  0.31779801    -0.00500
Br402      Br  0.67700046  0.23485652  0.59679175    -0.00500
C403        C  0.76736675  0.31954458  0.42887571    -0.01600
C404        C  0.72709199  0.33030893  0.42997801     0.08100
C405        C  0.72819517  0.36444462  0.41049065    -0.01700
C406        C  0.77122814  0.39049863  0.39212106    -0.01700
C407        C  0.81068156  0.37872336  0.39015344     0.08200
C408        C  0.80827078  0.34259273  0.40820897    -0.01900
Br409      Br  0.86150957  0.32489978  0.40536689    -0.00400
Br410      Br  0.76958277  0.27690666  0.45809067    -0.00500
Br411      Br  0.77868702  0.44643419  0.70708503    -0.00500
Br412      Br  0.67026182  0.37478004  0.40796322    -0.00500
N413        N  0.85894732  0.39866845  0.00244294    -0.03200
C414        C  0.91088283  0.42239647  0.99802203    -0.00600
C415        C  0.94083595  0.44813730  0.69851006    -0.23500
C416        C  0.90689594  0.43775876  0.72400946    -0.23700
C417        C  0.85719707  0.40680053  0.70543228    -0.00700
H418        H  0.98257226  0.47186657  0.70523877     0.13100
H419        H  0.91742523  0.44969325  0.75309991     0.13100
N420        N  0.44525375  0.98464802  0.96479020    -0.03200
C421        C  0.43557277  0.98674044  0.93067378    -0.00600
C422        C  0.40164051  0.93773137  0.90935780    -0.23500
C423        C  0.39071472  0.90416386  0.93075852    -0.23700
C424        C  0.41934702  0.93350938  0.96465437    -0.00700
H425        H  0.38751525  0.92736173  0.88092275     0.13100
H426        H  0.36423326  0.86298559  0.92157194     0.13100
N427        N  0.43990463  0.38153872  0.99834836    -0.03200
C428        C  0.42676083  0.36547973  0.69594214    -0.00600
C429        C  0.39095054  0.37728710  0.71022817    -0.23500
C430        C  0.38286410  0.40247172  0.68788830    -0.23700
C431        C  0.41494595  0.40654995  0.99403106    -0.00700
H432        H  0.37451601  0.37070753  0.73528715     0.13100
H433        H  0.35638140  0.41622267  0.69212770     0.13100
Fe434      Fe  0.50619112  0.21663661  0.82034680     1.65800
Fe435      Fe  0.62179623  0.22280056  0.82342093     1.73200
Fe436      Fe  0.61996736  0.33365524  0.84119531     1.54400
O437        O  0.57937081  0.33434644  0.79774812    -0.81400
O438        O  0.68006985  0.27770994  0.86573187    -0.79700
O439        O  0.49959506  0.26510494  0.79431292    -0.83900
O440        O  0.50097633  0.25547260  0.86971993    -0.78800
O441        O  0.67777466  0.34067668  0.80894404    -0.80500
O442        O  0.58232035  0.18118313  0.86006843    -0.83300
C443        C  0.52524006  0.30348817  0.88504077     0.97500
C444        C  0.53100517  0.30665221  0.78537579     1.04900
O445        O  0.58266676  0.25784354  0.82848887    -1.12300
O446        O  0.56983617  0.16192962  0.78044645    -0.74700
O447        O  0.50574648  0.17509183  0.77020803    -0.78200
O448        O  0.56697621  0.33657441  0.87499764    -0.78900
C449        C  0.52961225  0.15148231  0.76104826     0.96400
O450        O  0.50117747  0.16163457  0.84508710    -0.76800
O451        O  0.66333764  0.26165058  0.78618492    -0.82000
C452        C  0.68872274  0.31803297  0.88908185     0.99000
C453        C  0.68657949  0.30943058  0.78725634     1.04900
O454        O  0.66407078  0.34034012  0.88597232    -0.77700
C455        C  0.53335591  0.15546179  0.86144998     1.03200
N456        N  0.98454087  0.44613475  0.95804103    -0.03200
C457        C  0.98614686  0.43841143  0.92173397    -0.00600
C458        C  0.93651812  0.40578653  0.90320714    -0.23500
C459        C  0.90274727  0.39370456  0.92882320    -0.23700
C460        C  0.93268568  0.42048377  0.96257884    -0.00700
H461        H  0.92588022  0.39345870  0.87412050     0.13100
H462        H  0.86102453  0.36806879  0.92235575     0.13100
N463        N  0.39602896  0.86099804  0.99577494    -0.03200
C464        C  0.40561175  0.85947888  0.69674853    -0.00600
C465        C  0.43841863  0.90839928  0.71828411    -0.23500
C466        C  0.44920188  0.94169471  0.69682532    -0.23700
C467        C  0.42135690  0.91216873  0.99600065    -0.00700
H468        H  0.45217017  0.91881796  0.74679932     0.13100
H469        H  0.47520770  0.98278834  0.70635666     0.13100
N470        N  0.39810223  0.46107867  0.96113888    -0.03200
C471        C  0.41288723  0.47872171  0.93089967    -0.00600
C472        C  0.44865031  0.46677983  0.91674665    -0.23500
C473        C  0.45483298  0.43966194  0.93824247    -0.23700
C474        C  0.42202743  0.43494104  0.96501240    -0.00700
H475        H  0.46611747  0.47436707  0.89214194     0.13100
H476        H  0.48089431  0.42544081  0.93381048     0.13100
Fe477      Fe  0.22269369  0.51342988  0.78636086     1.65800
Fe478      Fe  0.33738371  0.62925057  0.80655816     1.73200
Fe479      Fe  0.22255666  0.62438205  0.80379558     1.54400
O480        O  0.16319672  0.56918584  0.76205101    -0.81400
O481        O  0.33929752  0.67092154  0.85683410    -0.79700
O482        O  0.18082869  0.50802800  0.74098805    -0.83900
O483        O  0.16404360  0.50728630  0.81760685    -0.78800
O484        O  0.26198150  0.66348209  0.76594711    -0.80500
O485        O  0.34293679  0.57980234  0.83198943    -0.83300
C486        C  0.15621522  0.53877005  0.83995613     0.97500
C487        C  0.15542187  0.52965118  0.73817168     1.04900
O488        O  0.26088531  0.58891178  0.79905773    -1.12300
O489        O  0.34090678  0.59015110  0.75674105    -0.74700
O490        O  0.27594225  0.50924465  0.75346612    -0.78200
O491        O  0.18074821  0.58681268  0.84163586    -0.78900
C492        C  0.31677556  0.54188055  0.74236810     0.96400
O493        O  0.26203726  0.51288511  0.83046629    -0.76800
O494        O  0.34317879  0.68529573  0.78276403    -0.82000
C495        C  0.31582052  0.69488953  0.86596174     0.99000
C496        C  0.31102368  0.69026612  0.76526222     1.04900
O497        O  0.27594452  0.68531343  0.84648356    -0.77700
C498        C  0.31071137  0.53944407  0.84195115     1.03200
C499        C  0.36035726  0.55524554  0.90061197    -0.01600
C500        C  0.33198488  0.52206024  0.86667906     0.08100
C501        C  0.32912189  0.47461863  0.85457300    -0.01700
C502        C  0.35391018  0.46003437  0.87638739    -0.01700
C503        C  0.38433951  0.49411819  0.90976014     0.08200
C504        C  0.38802302  0.54221866  0.92151778    -0.01900
Br505      Br  0.43449300  0.59274806  0.96408776    -0.00400
Br506      Br  0.36069888  0.61837647  0.91866232    -0.00500
Br507      Br  0.34517566  0.39250869  0.86020758    -0.00500
Br508      Br  0.29471837  0.43127545  0.80668503    -0.00500
C509        C  0.41084479  0.51809183  0.68775415    -0.01600
C510        C  0.37735000  0.48186646  0.65602202     0.08100
C511        C  0.32410149  0.46602453  0.65248605    -0.01700
C512        C  0.30450668  0.48708539  0.68015295    -0.01700
C513        C  0.33776581  0.52243321  0.71219055     0.08200
C514        C  0.39087283  0.53741130  0.71605517    -0.01900
Br515      Br  0.43592233  0.58172547  0.76097273    -0.00400
Br516      Br  0.48456093  0.54186824  0.69240461     0.00300
Br517      Br  0.23250544  0.46858746  0.67332647    -0.00500
Br518      Br  0.27753074  0.41327459  0.94410987    -0.00500
C519        C  0.41028598  0.81399427  0.94002486    -0.01600
C520        C  0.37584130  0.81749818  0.96433821     0.08100
C521        C  0.32172171  0.78000719  0.95635801    -0.01700
C522        C  0.30242274  0.73848429  0.92521706    -0.01700
C523        C  0.33650581  0.73628576  0.90017867     0.08200
C524        C  0.39056295  0.77458733  0.90762159    -0.01900
Br525      Br  0.43749559  0.77609589  0.87222995    -0.00400
Br526      Br  0.48447062  0.86525805  0.94999948    -0.00500
Br527      Br  0.22945202  0.68360817  0.91784711    -0.00500
Br528      Br  0.27296742  0.78810909  0.98556041    -0.00500
C529        C  0.37411624  0.73821050  0.72436974    -0.01600
C530        C  0.33211105  0.73046910  0.74475591     0.08100
C531        C  0.31384871  0.76474914  0.74842620    -0.01700
C532        C  0.33806321  0.80676926  0.73249767    -0.01700
C533        C  0.37904588  0.81358448  0.71152680     0.08200
C534        C  0.39811202  0.78034628  0.70845248    -0.01900
Br535      Br  0.46093887  0.79611473  0.68625564    -0.00400
Br536      Br  0.39890946  0.69107019  0.71740658    -0.00500
Br537      Br  0.31769638  0.85755604  0.74196840    -0.00500
Br538      Br  0.25837561  0.75743005  0.77751806    -0.00500
C539        C  0.06503391  0.52072924  0.66323356    -0.01600
C540        C  0.02913614  0.46702526  0.65164608     0.08100
C541        C  0.03592685  0.43349482  0.66753966    -0.01700
C542        C  0.07803930  0.45353019  0.69483874    -0.01700
C543        C  0.11417785  0.50762670  0.70660012     0.08200
C544        C  0.10814128  0.54087807  0.68968571    -0.01900
Br545      Br  0.15997941  0.61416644  0.70119118    -0.00400
Br546      Br  0.05182570  0.56706255  0.64583731    -0.00500
Br547      Br  0.08336267  0.40612146  0.71727122    -0.00500
Br548      Br  0.98511307  0.35991926  0.65345969    -0.00500
C549        C  0.11396672  0.48131108  0.88179155    -0.01600
C550        C  0.11598864  0.51766222  0.86420802     0.08100
C551        C  0.07657083  0.52972409  0.86718873    -0.01700
C552        C  0.03516963  0.50498329  0.88721369    -0.01700
C553        C  0.03243175  0.46739647  0.90374878     0.08200
C554        C  0.07127527  0.45487650  0.90027290    -0.01900
Br555      Br  0.06333830  0.39739703  0.91671176    -0.00400
Br556      Br  0.17005195  0.46789897  0.88142065    -0.00500
Br557      Br  0.98089127  0.52125144  0.89058170    -0.00500
Br558      Br  0.07629010  0.57678749  0.84157532    -0.00500
C559        C  0.47818846  0.28885046  0.72743855    -0.01600
C560        C  0.50918247  0.32356776  0.76037261     0.08100
C561        C  0.51475971  0.37253350  0.77099740    -0.01700
C562        C  0.48908396  0.38638544  0.74917460    -0.01700
C563        C  0.45626038  0.35085779  0.71695640     0.08200
C564        C  0.45074436  0.30186988  0.70630619    -0.01900
Br565      Br  0.40242537  0.25049767  0.99803920    -0.00400
Br566      Br  0.47404827  0.22356471  0.71073934    -0.00500
Br567      Br  0.49926457  0.45467687  0.76378568    -0.00500
Br568      Br  0.55436577  0.41954043  0.81688157    -0.00500
C569        C  0.51535058  0.37953809  0.97395448    -0.01600
C570        C  0.46153329  0.36126459  0.97053504     0.08100
C571        C  0.42852452  0.32376047  0.93909220    -0.01700
C572        C  0.44954629  0.30549754  0.91094902    -0.01700
C573        C  0.50317369  0.32208684  0.91503290     0.08200
C574        C  0.53586836  0.35859183  0.94697412    -0.01900
Br575      Br  0.60830362  0.37881584  0.95482522    -0.00400
Br576      Br  0.56143106  0.43654516  0.68056449    -0.00500
Br577      Br  0.40517012  0.26101478  0.86582026    -0.00500
Br578      Br  0.35421256  0.29743018  0.93445417    -0.00500
C579        C  0.49866939  0.03412346  0.89007286    -0.01600
C580        C  0.46392511  0.03275904  0.91569945     0.08100
C581        C  0.45311019  0.07258070  0.92385154    -0.01700
C582        C  0.47878238  0.11468692  0.90798554    -0.01700
C583        C  0.51222508  0.11519995  0.88172061     0.08200
C584        C  0.52163952  0.07451731  0.87247946    -0.01900
Br585      Br  0.56172857  0.07121809  0.83314437    -0.00400
Br586      Br  0.51384682  0.97975263  0.87788447    -0.00500
Br587      Br  0.46805316  0.17179187  0.92239526    -0.00500
Br588      Br  0.39864483  0.06713097  0.95288285    -0.00500
C589        C  0.52140838  0.06212269  0.67146343    -0.01600
C590        C  0.46685962  0.02792237  0.66293370     0.08100
C591        C  0.43317292  0.03328983  0.68709087    -0.01700
C592        C  0.45376548  0.07335193  0.71905499    -0.01700
C593        C  0.50851833  0.10915168  0.72713637     0.08200
C594        C  0.54233285  0.10300731  0.70318287    -0.01900
Br595      Br  0.61735310  0.15049513  0.71295226    -0.00400
Br596      Br  0.56720925  0.04937383  0.97473757    -0.00500
Br597      Br  0.40627779  0.07551364  0.75299289    -0.00500
Br598      Br  0.35851510  0.98331419  0.67738551    -0.00500
C599        C  0.76894941  0.39326640  0.93054256    -0.01600
C600        C  0.72997608  0.33984019  0.92056288     0.08100
C601        C  0.73303816  0.30652054  0.93908682    -0.01700
C602        C  0.77612265  0.32557649  0.96526507    -0.01700
C603        C  0.81479538  0.37873838  0.97530463     0.08200
C604        C  0.81066803  0.41260035  0.95802979    -0.01900
Br605      Br  0.86372920  0.48556757  0.97112167    -0.00400
Br606      Br  0.76774168  0.44016333  0.90530029    -0.00500
Br607      Br  0.78494631  0.27791347  0.65112814    -0.00500
Br608      Br  0.67699836  0.23484715  0.93012168    -0.00500
C609        C  0.76736527  0.31953677  0.76220472    -0.01600
C610        C  0.72709492  0.33030778  0.76331017     0.08100
C611        C  0.72820120  0.36444476  0.74382267    -0.01700
C612        C  0.77123328  0.39049409  0.72545060    -0.01700
C613        C  0.81068354  0.37871435  0.72348170     0.08200
C614        C  0.80826924  0.34258208  0.74153705    -0.01900
Br615      Br  0.86150336  0.32488265  0.73869310    -0.00400
Br616      Br  0.76957465  0.27689099  0.79141518    -0.00500
Br617      Br  0.77867605  0.44643021  0.04041451    -0.00500
Br618      Br  0.67027184  0.37478617  0.74129684    -0.00500
loop_ 
_geom_bond_atom_site_label_1 
_geom_bond_atom_site_label_2 
_geom_bond_distance 
_geom_bond_site_symmetry_2 
_ccdc_geom_bond_type 
N1            C2   1.366       .  A
N1          C211   1.358       .  A
N1          C191   1.450       .  S
C2           C48   1.500       .  S
C2          C209   1.391       .  A
C3            C4   1.367       .  A
C3          C414   1.391   1_554  A
C3            H6   1.071       .  S
C4            C5   1.375       .  A
C4            H7   1.082       .  S
C5          N413   1.358       .  A
C5          C201   1.475       .  S
N8           C12   1.364       .  A
N8            C9   1.357       .  A
N8          C384   1.443   1_565  S
C9          C168   1.482   1_565  S
C9           C10   1.376       .  A
C10          C11   1.371       .  A
C10          H13   1.082       .  S
C11          C12   1.391       .  A
C11          H14   1.075       .  S
C12          C55   1.504       .  S
N15          C19   1.363       .  A
N15         C222   1.357       .  A
N15         C158   1.437       .  S
C16         N427   1.357   1_554  A
C16         C151   1.490       .  S
C16          C17   1.379       .  A
C17          C18   1.375       .  A
C17          H20   1.082       .  S
C18         C431   1.391   1_554  A
C18          H21   1.078       .  S
C19          C62   1.510       .  S
C19         C224   1.391       .  A
Fe22         O38   2.070       .  S
Fe22         O28   2.056       .  S
Fe22         O35   2.057       .  S
Fe22         O27   2.066       .  S
Fe22         O33   1.952       .  S
Fe23         O26   2.082       .  S
Fe23         O30   2.053       .  S
Fe23         O34   2.084       .  S
Fe23         O39   2.049       .  S
Fe23         O33   1.959       .  S
Fe24         O42   2.074       .  S
Fe24         O29   2.065       .  S
Fe24         O36   2.066       .  S
Fe24         O25   2.074       .  S
Fe24         O33   1.961       .  S
O25          C32   1.271       .  A
O26          C40   1.272       .  A
O27          C32   1.268       .  A
O28          C31   1.269       .  A
O29          C41   1.270       .  A
O30          C43   1.268       .  A
C31         C161   1.476       .  S
C31          O36   1.269       .  A
C32         C148   1.483       .  S
O34          C37   1.270       .  A
O35          C37   1.267       .  A
C37         C181   1.489       .  S
O38          C43   1.270       .  A
O39          C41   1.267       .  A
C40         C188   1.494       .  S
C40          O42   1.270       .  A
C41         C198   1.470       .  S
C43         C171   1.472       .  S
N44          C48   1.365       .  A
N44          C45   1.357       .  A
N44         C334   1.449   1_655  S
C45         C141   1.475   1_655  S
C45          C46   1.375       .  A
C46          C47   1.369       .  A
C46          H49   1.082       .  S
C47          C48   1.391       .  A
C47          H50   1.074       .  S
N51          C55   1.365       .  A
N51         C258   1.357       .  A
N51         C108   1.447       .  S
C52         N463   1.357   1_554  A
C52         C121   1.471       .  S
C52          C53   1.372       .  A
C53          C54   1.367       .  A
C53          H56   1.082       .  S
C54         C467   1.393   1_554  A
C54          H57   1.072       .  S
C55         C260   1.393       .  A
N58          C62   1.364       .  A
N58          C59   1.358       .  A
N58         C304   1.438       .  S
C59          C91   1.489       .  S
C59          C60   1.378       .  A
C60          C61   1.373       .  A
C60          H63   1.082       .  S
C61          C62   1.391       .  A
C61          H64   1.077       .  S
Fe65         O81   2.070       .  S
Fe65         O71   2.068       .  S
Fe65         O78   2.064       .  S
Fe65         O70   2.070       .  S
Fe65         O76   1.951       .  S
Fe66         O69   2.050       .  S
Fe66         O73   2.064       .  S
Fe66         O77   2.055       .  S
Fe66         O82   2.068       .  S
Fe66         O76   1.952       .  S
Fe67         O85   2.091       .  S
Fe67         O72   2.054       .  S
Fe67         O79   2.054       .  S
Fe67         O68   2.086       .  S
Fe67         O76   1.950       .  S
O68          C75   1.272       .  A
O69          C83   1.266       .  A
O70          C75   1.269       .  A
O71          C74   1.270       .  A
O72          C84   1.267       .  A
O73          C86   1.268       .  A
C74         C138   1.474       .  S
C74          O79   1.268       .  A
C75         C131   1.496       .  S
O77          C80   1.268       .  A
O78          C80   1.268       .  A
C80         C101   1.472       .  S
O81          C86   1.271       .  A
O82          C84   1.269       .  A
C83         C111   1.484       .  S
C83          O85   1.273       .  A
C84         C118   1.477       .  S
C86          C88   1.476       .  S
C87          C88   1.411       .  A
C87          C92   1.410       .  A
C87         Br94   1.932       .  S
C88          C89   1.406       .  A
C89          C90   1.405       .  A
C89         Br96   1.933       .  S
C90          C91   1.417       .  A
C90         Br95   1.935       .  S
C91          C92   1.413       .  A
C92         Br93   1.926       .  S
C97          C98   1.414   1_554  A
C97         C102   1.402       .  A
C97        Br104   1.932       .  S
C98         N470   1.438       .  S
C98          C99   1.406       .  A
C99         C100   1.406   1_556  A
C99        Br518   1.925       .  S
C100        C101   1.413       .  A
C100       Br105   1.931       .  S
C101        C102   1.410       .  A
C102       Br103   1.934       .  S
Br106       C305   1.925       .  S
C107        C108   1.414       .  A
C107        C112   1.408       .  A
C107       Br114   1.932       .  S
C108        C109   1.411       .  A
C109        C110   1.409       .  A
C109       Br116   1.918       .  S
C110        C111   1.411       .  A
C110       Br115   1.932       .  S
C111        C112   1.414       .  A
C112       Br113   1.933       .  S
C117        C118   1.416       .  A
C117        C122   1.405       .  A
C117       Br124   1.934       .  S
C118        C119   1.414       .  A
C119        C120   1.403       .  A
C119       Br126   1.935       .  S
C120        C121   1.410       .  A
C120       Br125   1.938       .  S
C121        C122   1.404       .  A
C122       Br123   1.928       .  S
C127        C128   1.407       .  A
C127        C132   1.411   1_556  A
C127       Br134   1.922       .  S
C128        N456   1.449   1_455  S
C128        C129   1.414   1_556  A
C129        C130   1.412       .  A
C129       Br136   1.933   1_454  S
C130        C131   1.417       .  A
C130       Br135   1.933       .  S
C131        C132   1.417       .  A
C132       Br133   1.932       .  S
C137        C138   1.413       .  A
C137        C142   1.402       .  A
C137       Br144   1.932       .  S
C138        C139   1.412       .  A
C139        C140   1.405       .  A
C139       Br146   1.934       .  S
C140        C141   1.413       .  A
C140       Br145   1.937   1_455  S
C141        C142   1.405       .  A
C142       Br143   1.924       .  S
C147        C148   1.413       .  A
C147        C152   1.411       .  A
C147       Br154   1.932       .  S
C148        C149   1.410       .  A
C149        C150   1.408       .  A
C149       Br156   1.932       .  S
C150        C151   1.415       .  A
C150       Br155   1.935       .  S
C151        C152   1.411       .  A
C152       Br565   1.926   1_554  S
Br153       C358   1.926       .  S
C157        C158   1.405       .  A
C157        C162   1.406       .  A
C157       Br370   1.924       .  S
C158        C159   1.412       .  A
C159        C160   1.403       .  A
C159       Br166   1.933       .  S
C160        C161   1.412       .  A
C160       Br165   1.934       .  S
C161        C162   1.414       .  A
C162       Br163   1.931       .  S
Br164       C569   1.924   1_554  S
C167        C168   1.415       .  A
C167        C172   1.405       .  A
C167       Br174   1.935   1_545  S
C168        C169   1.410       .  A
C169        C170   1.406       .  A
C169       Br176   1.922       .  S
C170        C171   1.409       .  A
C170       Br175   1.933       .  S
C171        C172   1.409       .  A
C172       Br173   1.934       .  S
C177        C178   1.406   1_554  A
C177        C182   1.411       .  A
C177       Br596   1.924   1_554  S
C178        N420   1.443   1_545  S
C178        C179   1.411   1_556  A
C179        C180   1.406       .  A
C179       Br186   1.935   1_545  S
C180        C181   1.416       .  A
C180       Br185   1.935       .  S
C181        C182   1.418       .  A
C182       Br183   1.932       .  S
Br184       C383   1.924       .  S
C187        C188   1.416       .  A
C187        C192   1.412       .  A
C187       Br194   1.931       .  S
C188        C189   1.416       .  A
C189        C190   1.410       .  A
C189       Br196   1.932       .  S
C190        C191   1.408       .  A
C190       Br401   1.922       .  S
C191        C192   1.415       .  A
C192       Br193   1.932       .  S
Br195       C602   1.922       .  S
C197        C198   1.410       .  A
C197        C202   1.402       .  A
C197       Br204   1.936       .  S
C198        C199   1.411       .  A
C199        C200   1.403       .  A
C199       Br206   1.932       .  S
C200        C201   1.407       .  A
C200       Br617   1.925       .  S
C201        C202   1.414       .  A
C202       Br203   1.937       .  S
Br205       C406   1.925       .  S
N207        C417   1.358       .  A
N207        C208   1.366       .  A
N207        C397   1.450       .  S
C208        C254   1.500       .  S
C208        C415   1.391       .  A
C209        C210   1.367       .  A
C209        H212   1.071       .  S
C210        C211   1.375       .  A
C210        H213   1.082       .  S
C211        C407   1.475       .  S
N214        C218   1.364       .  A
N214        C215   1.357       .  A
N214        C590   1.443   1_565  S
C215        C374   1.482   1_565  S
C215        C216   1.376       .  A
C216        C217   1.371       .  A
C216        H219   1.082       .  S
C217        C218   1.391       .  A
C217        H220   1.075       .  S
C218        C261   1.504       .  S
N221        C225   1.363       .  A
N221        C428   1.357       .  A
N221        C364   1.437       .  S
C222        C357   1.490       .  S
C222        C223   1.379       .  A
C223        C224   1.375       .  A
C223        H226   1.082       .  S
C224        H227   1.078       .  S
C225        C268   1.510       .  S
C225        C430   1.391       .  A
Fe228       O244   2.070       .  S
Fe228       O234   2.056       .  S
Fe228       O241   2.057       .  S
Fe228       O233   2.066       .  S
Fe228       O239   1.952       .  S
Fe229       O232   2.082       .  S
Fe229       O236   2.053       .  S
Fe229       O240   2.084       .  S
Fe229       O245   2.049       .  S
Fe229       O239   1.959       .  S
Fe230       O248   2.074       .  S
Fe230       O235   2.065       .  S
Fe230       O242   2.066       .  S
Fe230       O231   2.074       .  S
Fe230       O239   1.961       .  S
O231        C238   1.271       .  A
O232        C246   1.272       .  A
O233        C238   1.268       .  A
O234        C237   1.269       .  A
O235        C247   1.270       .  A
O236        C249   1.268       .  A
C237        C367   1.476       .  S
C237        O242   1.269       .  A
C238        C354   1.483       .  S
O240        C243   1.270       .  A
O241        C243   1.267       .  A
C243        C387   1.489       .  S
O244        C249   1.270       .  A
O245        C247   1.267       .  A
C246        C394   1.494       .  S
C246        O248   1.270       .  A
C247        C404   1.470       .  S
C249        C377   1.472       .  S
N250        C254   1.365       .  A
N250        C251   1.357       .  A
N250        C540   1.449   1_655  S
C251        C347   1.475   1_655  S
C251        C252   1.375       .  A
C252        C253   1.369       .  A
C252        H255   1.082       .  S
C253        C254   1.391       .  A
C253        H256   1.074       .  S
N257        C261   1.365       .  A
N257        C464   1.357       .  A
N257        C314   1.447       .  S
C258        C327   1.471       .  S
C258        C259   1.372       .  A
C259        C260   1.367       .  A
C259        H262   1.082       .  S
C260        H263   1.072       .  S
C261        C466   1.393       .  A
N264        C268   1.364       .  A
N264        C265   1.358       .  A
N264        C510   1.438       .  S
C265        C297   1.489       .  S
C265        C266   1.378       .  A
C266        C267   1.373       .  A
C266        H269   1.082       .  S
C267        C268   1.391       .  A
C267        H270   1.077       .  S
Fe271       O287   2.070       .  S
Fe271       O277   2.068       .  S
Fe271       O284   2.064       .  S
Fe271       O276   2.070       .  S
Fe271       O282   1.951       .  S
Fe272       O275   2.049       .  S
Fe272       O279   2.064       .  S
Fe272       O283   2.055       .  S
Fe272       O288   2.068       .  S
Fe272       O282   1.952       .  S
Fe273       O291   2.091       .  S
Fe273       O278   2.054       .  S
Fe273       O285   2.054       .  S
Fe273       O274   2.086       .  S
Fe273       O282   1.950       .  S
O274        C281   1.272       .  A
O275        C289   1.266       .  A
O276        C281   1.269       .  A
O277        C280   1.270       .  A
O278        C290   1.267       .  A
O279        C292   1.268       .  A
C280        C344   1.474       .  S
C280        O285   1.268       .  A
C281        C337   1.496       .  S
O283        C286   1.268       .  A
O284        C286   1.268       .  A
C286        C307   1.472       .  S
O287        C292   1.271       .  A
O288        C290   1.269       .  A
C289        C317   1.484       .  S
C289        O291   1.273       .  A
C290        C324   1.477       .  S
C292        C294   1.476       .  S
C293        C294   1.411       .  A
C293        C298   1.410       .  A
C293       Br300   1.932       .  S
C294        C295   1.406       .  A
C295        C296   1.405       .  A
C295       Br302   1.933       .  S
C296        C297   1.417       .  A
C296       Br301   1.935       .  S
C297        C298   1.413       .  A
C298       Br299   1.926       .  S
C303        C304   1.414       .  A
C303        C308   1.402       .  A
C303       Br310   1.932       .  S
C304        C305   1.406       .  A
C305        C306   1.406       .  A
C306        C307   1.413       .  A
C306       Br311   1.931       .  S
C307        C308   1.410       .  A
C308       Br309   1.934       .  S
Br312       C511   1.925       .  S
C313        C314   1.414       .  A
C313        C318   1.408       .  A
C313       Br320   1.932       .  S
C314        C315   1.411       .  A
C315        C316   1.409       .  A
C315       Br322   1.918       .  S
C316        C317   1.411       .  A
C316       Br321   1.932       .  S
C317        C318   1.413       .  A
C318       Br319   1.933       .  S
C323        C324   1.416       .  A
C323        C328   1.405       .  A
C323       Br330   1.934       .  S
C324        C325   1.414       .  A
C325        C326   1.403       .  A
C325       Br332   1.935       .  S
C326        C327   1.410       .  A
C326       Br331   1.938       .  S
C327        C328   1.404       .  A
C328       Br329   1.928       .  S
C333        C334   1.407       .  A
C333        C338   1.411       .  A
C333       Br340   1.922       .  S
C334        C335   1.414       .  A
C335        C336   1.412       .  A
C335       Br342   1.933   1_455  S
C336        C337   1.417       .  A
C336       Br341   1.933       .  S
C337        C338   1.417       .  A
C338       Br339   1.932       .  S
C343        C344   1.413       .  A
C343        C348   1.402       .  A
C343       Br350   1.932       .  S
C344        C345   1.412       .  A
C345        C346   1.405       .  A
C345       Br352   1.934       .  S
C346        C347   1.413       .  A
C346       Br351   1.937   1_455  S
C347        C348   1.405       .  A
C348       Br349   1.924       .  S
C353        C354   1.413       .  A
C353        C358   1.411       .  A
C353       Br360   1.932       .  S
C354        C355   1.410       .  A
C355        C356   1.408       .  A
C355       Br362   1.932       .  S
C356        C357   1.415       .  A
C356       Br361   1.935       .  S
C357        C358   1.411       .  A
Br359       C564   1.926       .  S
C363        C364   1.405       .  A
C363        C368   1.406       .  A
C363       Br576   1.924       .  S
C364        C365   1.412       .  A
C365        C366   1.403       .  A
C365       Br372   1.933       .  S
C366        C367   1.412       .  A
C366       Br371   1.934       .  S
C367        C368   1.414       .  A
C368       Br369   1.931       .  S
C373        C374   1.415       .  A
C373        C378   1.405       .  A
C373       Br380   1.935   1_545  S
C374        C375   1.410       .  A
C375        C376   1.406       .  A
C375       Br382   1.922       .  S
C376        C377   1.409       .  A
C376       Br381   1.933       .  S
C377        C378   1.409       .  A
C378       Br379   1.934       .  S
C383        C384   1.406       .  A
C383        C388   1.412       .  A
C384        C385   1.411       .  A
C385        C386   1.406       .  A
C385       Br392   1.935   1_545  S
C386        C387   1.416       .  A
C386       Br391   1.935       .  S
C387        C388   1.418       .  A
C388       Br389   1.932       .  S
Br390       C589   1.924       .  S
C393        C394   1.416       .  A
C393        C398   1.412       .  A
C393       Br400   1.931       .  S
C394        C395   1.416       .  A
C395        C396   1.410       .  A
C395       Br402   1.932       .  S
C396        C397   1.408       .  A
C396       Br607   1.922       .  S
C397        C398   1.415       .  A
C398       Br399   1.932       .  S
C403        C404   1.410       .  A
C403        C408   1.402       .  A
C403       Br410   1.936       .  S
C404        C405   1.411       .  A
C405        C406   1.403       .  A
C405       Br412   1.932       .  S
C406        C407   1.407       .  A
C407        C408   1.414       .  A
C408       Br409   1.937       .  S
Br411       C612   1.925       .  S
N413        C414   1.366   1_554  A
N413        C603   1.450   1_554  S
C414        C460   1.500       .  S
C415        C416   1.367       .  A
C415        H418   1.071       .  S
C416        C417   1.375       .  A
C416        H419   1.082       .  S
C417        C613   1.475       .  S
N420        C424   1.364       .  A
N420        C421   1.357       .  A
C421        C580   1.482   1_565  S
C421        C422   1.376       .  A
C422        C423   1.371       .  A
C422        H425   1.082       .  S
C423        C424   1.391       .  A
C423        H426   1.075       .  S
C424        C467   1.504       .  S
N427        C431   1.363       .  A
N427        C570   1.437       .  S
C428        C563   1.490       .  S
C428        C429   1.379       .  A
C429        C430   1.375       .  A
C429        H432   1.082       .  S
C430        H433   1.078       .  S
C431        C474   1.510       .  S
Fe434       O450   2.070       .  S
Fe434       O440   2.056       .  S
Fe434       O447   2.057       .  S
Fe434       O439   2.066       .  S
Fe434       O445   1.952       .  S
Fe435       O438   2.082       .  S
Fe435       O442   2.053       .  S
Fe435       O446   2.084       .  S
Fe435       O451   2.049       .  S
Fe435       O445   1.959       .  S
Fe436       O454   2.074       .  S
Fe436       O441   2.065       .  S
Fe436       O448   2.066       .  S
Fe436       O437   2.074       .  S
Fe436       O445   1.961       .  S
O437        C444   1.271       .  A
O438        C452   1.272       .  A
O439        C444   1.268       .  A
O440        C443   1.269       .  A
O441        C453   1.270       .  A
O442        C455   1.268       .  A
C443        C573   1.476       .  S
C443        O448   1.269       .  A
C444        C560   1.483       .  S
O446        C449   1.270       .  A
O447        C449   1.267       .  A
C449        C593   1.489       .  S
O450        C455   1.270       .  A
O451        C453   1.267       .  A
C452        C600   1.494       .  S
C452        O454   1.270       .  A
C453        C610   1.470       .  S
C455        C583   1.472       .  S
N456        C460   1.365       .  A
N456        C457   1.357       .  A
C457        C553   1.475   1_655  S
C457        C458   1.375       .  A
C458        C459   1.369       .  A
C458        H461   1.082       .  S
C459        C460   1.391       .  A
C459        H462   1.074       .  S
N463        C467   1.365       .  A
N463        C520   1.447       .  S
C464        C533   1.471       .  S
C464        C465   1.372       .  A
C465        C466   1.367       .  A
C465        H468   1.082       .  S
C466        H469   1.072       .  S
N470        C474   1.364       .  A
N470        C471   1.358       .  A
C471        C503   1.489       .  S
C471        C472   1.378       .  A
C472        C473   1.373       .  A
C472        H475   1.082       .  S
C473        C474   1.391       .  A
C473        H476   1.077       .  S
Fe477       O493   2.070       .  S
Fe477       O483   2.068       .  S
Fe477       O490   2.064       .  S
Fe477       O482   2.070       .  S
Fe477       O488   1.951       .  S
Fe478       O481   2.049       .  S
Fe478       O485   2.064       .  S
Fe478       O489   2.055       .  S
Fe478       O494   2.068       .  S
Fe478       O488   1.952       .  S
Fe479       O497   2.091       .  S
Fe479       O484   2.054       .  S
Fe479       O491   2.054       .  S
Fe479       O480   2.086       .  S
Fe479       O488   1.950       .  S
O480        C487   1.272       .  A
O481        C495   1.266       .  A
O482        C487   1.269       .  A
O483        C486   1.270       .  A
O484        C496   1.267       .  A
O485        C498   1.268       .  A
C486        C550   1.474       .  S
C486        O491   1.268       .  A
C487        C543   1.496       .  S
O489        C492   1.268       .  A
O490        C492   1.268       .  A
C492        C513   1.472       .  S
O493        C498   1.271       .  A
O494        C496   1.269       .  A
C495        C523   1.484       .  S
C495        O497   1.273       .  A
C496        C530   1.477       .  S
C498        C500   1.476       .  S
C499        C500   1.411       .  A
C499        C504   1.410       .  A
C499       Br506   1.932       .  S
C500        C501   1.406       .  A
C501        C502   1.405       .  A
C501       Br508   1.933       .  S
C502        C503   1.417       .  A
C502       Br507   1.935       .  S
C503        C504   1.413       .  A
C504       Br505   1.926       .  S
C509        C510   1.414       .  A
C509        C514   1.402       .  A
C509       Br516   1.932       .  S
C510        C511   1.406       .  A
C511        C512   1.406       .  A
C512        C513   1.413       .  A
C512       Br517   1.931       .  S
C513        C514   1.410       .  A
C514       Br515   1.934       .  S
C519        C520   1.414       .  A
C519        C524   1.408       .  A
C519       Br526   1.932       .  S
C520        C521   1.411       .  A
C521        C522   1.409       .  A
C521       Br528   1.918       .  S
C522        C523   1.411       .  A
C522       Br527   1.932       .  S
C523        C524   1.414       .  A
C524       Br525   1.933       .  S
C529        C530   1.416       .  A
C529        C534   1.405       .  A
C529       Br536   1.934       .  S
C530        C531   1.414       .  A
C531        C532   1.403       .  A
C531       Br538   1.935       .  S
C532        C533   1.410       .  A
C532       Br537   1.938       .  S
C533        C534   1.404       .  A
C534       Br535   1.928       .  S
C539        C540   1.407       .  A
C539        C544   1.411       .  A
C539       Br546   1.922       .  S
C540        C541   1.414       .  A
C541        C542   1.411       .  A
C541       Br548   1.933   1_455  S
C542        C543   1.417       .  A
C542       Br547   1.933       .  S
C543        C544   1.417       .  A
C544       Br545   1.932       .  S
C549        C550   1.413       .  A
C549        C554   1.402       .  A
C549       Br556   1.932       .  S
C550        C551   1.412       .  A
C551        C552   1.405       .  A
C551       Br558   1.934       .  S
C552        C553   1.413       .  A
C552       Br557   1.937   1_455  S
C553        C554   1.405       .  A
C554       Br555   1.924       .  S
C559        C560   1.413       .  A
C559        C564   1.411       .  A
C559       Br566   1.932       .  S
C560        C561   1.410       .  A
C561        C562   1.408       .  A
C561       Br568   1.932       .  S
C562        C563   1.415       .  A
C562       Br567   1.935       .  S
C563        C564   1.411       .  A
C569        C570   1.405       .  A
C569        C574   1.406       .  A
C570        C571   1.412       .  A
C571        C572   1.403       .  A
C571       Br578   1.933       .  S
C572        C573   1.412       .  A
C572       Br577   1.934       .  S
C573        C574   1.414       .  A
C574       Br575   1.931       .  S
C579        C580   1.415       .  A
C579        C584   1.405       .  A
C579       Br586   1.935   1_545  S
C580        C581   1.410       .  A
C581        C582   1.406       .  A
C581       Br588   1.922       .  S
C582        C583   1.409       .  A
C582       Br587   1.933       .  S
C583        C584   1.409       .  A
C584       Br585   1.934       .  S
C589        C590   1.406       .  A
C589        C594   1.411       .  A
C590        C591   1.411       .  A
C591        C592   1.406       .  A
C591       Br598   1.935   1_545  S
C592        C593   1.416       .  A
C592       Br597   1.935       .  S
C593        C594   1.418       .  A
C594       Br595   1.932       .  S
C599        C600   1.416       .  A
C599        C604   1.412       .  A
C599       Br606   1.931       .  S
C600        C601   1.416       .  A
C601        C602   1.410       .  A
C601       Br608   1.932       .  S
C602        C603   1.408       .  A
C603        C604   1.415       .  A
C604       Br605   1.932       .  S
C609        C610   1.410       .  A
C609        C614   1.402       .  A
C609       Br616   1.936       .  S
C610        C611   1.411       .  A
C611        C612   1.403       .  A
C611       Br618   1.932       .  S
C612        C613   1.407       .  A
C613        C614   1.414       .  A
C614       Br615   1.937       .  S
