geometry optimzed in LAMMPS
_audit_creation_date              2020-12-01 
_audit_creation_method            'lammps2cif' 
_symmetry_space_group_name_H-M    'P1' 
_symmetry_Int_Tables_number       1 
_symmetry_cell_setting            triclinic 
loop_ 
_symmetry_equiv_pos_as_xyz 
  x,y,z 
_cell_length_a                    41.44198809 
_cell_length_b                    41.2403119867616 
_cell_length_c                    44.0985977062127 
_cell_angle_alpha                 112.2864685526116 
_cell_angle_beta                  70.97354211544197 
_cell_angle_gamma                 129.05404874271204 
loop_ 
_atom_site_label 
_atom_site_type_symbol 
_atom_site_fract_x 
_atom_site_fract_y 
_atom_site_fract_z 
_atom_site_charge 
C1          C  0.34717022  0.14226909  0.99471564     0.03400
C2          C  0.30409407  0.11779228  0.99319840    -0.12800
C3          C  0.28632019  0.13693574  0.99168312     0.00900
C4          C  0.31218786  0.18097331  0.99241939    -0.11300
C5          C  0.35521018  0.20598203  0.99469895     0.03400
C6          C  0.37210479  0.18650643  0.99695778    -0.10700
H7          H  0.28509299  0.08356791  0.99134210     0.09000
H8          H  0.29920074  0.19521936  0.98903955     0.06500
H9          H  0.40522349  0.20505297  0.99850263     0.06300
C10         C  0.35556562  0.15137451  0.24675455     0.03400
C11         C  0.37837682  0.19370119  0.24363931    -0.12800
C12         C  0.35788738  0.20911217  0.24087550     0.00900
C13         C  0.31429363  0.18309219  0.24309321    -0.11300
C14         C  0.29058316  0.14105074  0.24697440     0.03400
C15         C  0.31150798  0.12543121  0.24922326    -0.10700
H16         H  0.41231171  0.21341189  0.24059808     0.09000
H17         H  0.29902606  0.19495938  0.23959060     0.06500
H18         H  0.29393646  0.09253788  0.25088264     0.06300
C19         C  0.14289708  0.32781777  0.34216037     0.03400
C20         C  0.18541651  0.35092407  0.34517051    -0.12800
C21         C  0.20165869  0.32977208  0.34525443     0.00900
C22         C  0.17488536  0.28516034  0.34207730    -0.11300
C23         C  0.13200971  0.26167987  0.33998961     0.03400
C24         C  0.11656129  0.28313696  0.33867719    -0.10700
H25         H  0.20488916  0.38569235  0.35007075     0.09000
H26         H  0.18706398  0.26928002  0.34391703     0.06500
H27         H  0.08353720  0.26586393  0.33750270     0.06300
C28         C  0.14859934  0.33728337  0.09770765     0.03400
C29         C  0.12344636  0.29336030  0.09702233    -0.12800
C30         C  0.14125789  0.27410736  0.09818517     0.00900
C31         C  0.18470296  0.29872497  0.09801798    -0.11300
C32         C  0.20992971  0.34258714  0.09876990     0.03400
C33         C  0.19191925  0.36162107  0.09801712    -0.10700
H34         H  0.08981731  0.27513634  0.09805630     0.09000
H35         H  0.19857899  0.28480938  0.10048735     0.06500
H36         H  0.21091948  0.39605608  0.10063487     0.06300
O37         O  0.05683818  0.42259205  0.35816269    -0.75000
O38         O  0.05611401  0.42818146  0.41170100    -0.53900
C39         C  0.06536287  0.41692530  0.38056775     0.78700
O40         O  0.07267119  0.10827273  0.39162167    -0.59600
O41         O  0.00715194  0.07547606  0.38004457    -0.54100
C42         C  0.04637397  0.10603020  0.37999589     0.70700
O43         O  0.12421098  0.07709207  0.44386742    -0.74200
O44         O  0.09596270  0.51334871  0.45726254    -0.54800
C45         C  0.12693382  0.05442140  0.45511732     0.76700
O46         O  0.00685328  0.46336255  0.31310474    -0.59300
O47         O  0.47238550  0.99329467  0.33431571    -0.52500
C48         C  0.49239296  0.48221536  0.31064071     0.73300
Zr49       Zr  0.02066849  0.45115946  0.35648539     2.54700
O50         O  0.08483262  0.47976560  0.31839257    -0.79900
O51         O  0.48825317  0.38251418  0.31861828    -0.93300
Zr52       Zr  0.07221004  0.06802297  0.42087462     2.64700
O53         O  0.14067367  0.10434569  0.38877366    -0.98300
O54         O  0.09177648  0.13495057  0.46222129    -0.80300
O55         O  0.06212213  0.49883935  0.40079413    -0.83700
O56         O  0.03293690  0.02033311  0.37571406    -2.18400
O57         O  0.36832267  0.39720677  0.39588674    -0.67100
O58         O  0.39482103  0.45652221  0.37921429    -0.51700
C59         C  0.36501062  0.41835045  0.38330565     0.71700
O60         O  0.48239524  0.00722970  0.02599147    -0.60000
O61         O  0.01710285  0.47675993  0.00407479    -0.52000
C62         C  0.49971915  0.49203989  0.02845669     0.73500
O63         O  0.43451715  0.04973987  0.48082380    -0.71400
O64         O  0.43117604  0.03992899  0.42716032    -0.50100
C65         C  0.42461435  0.05385807  0.45836828     0.74900
O66         O  0.41907648  0.36635248  0.44905467    -0.66700
O67         O  0.48504902  0.39752329  0.45851856    -0.53900
C68         C  0.44559187  0.36783532  0.45960782     0.73200
Zr69       Zr  0.41970599  0.40542143  0.41880396     2.77500
O70         O  0.35385395  0.36926969  0.45390625    -0.97500
O71         O  0.39774574  0.33820031  0.37723371    -0.78300
Zr72       Zr  0.46766011  0.01833878  0.48261343     2.70100
O73         O  0.40127875  0.48603157  0.01837367    -0.79500
O74         O  0.00032513  0.08741627  0.02305759    -0.98600
Zr75       Zr  0.02402295  0.46457144  0.44550109     2.21500
Zr76       Zr  0.46386495  0.00397675  0.39318856     2.11100
O77         O  0.42757803  0.47185156  0.43851689    -2.47300
O78         O  0.45885276  0.45190681  0.46409198    -0.79300
O79         O  0.45545651  0.43877808  0.37370881    -0.71500
O80         O  0.03646635  0.03533584  0.46624775    -2.32500
O81         O  0.48615319  0.41791949  0.39988314    -2.28700
O82         O  0.00581884  0.05596807  0.43943696    -0.73300
H83         H  0.04692059  0.03391732  0.35739475     0.78700
H84         H  0.05300705  0.05276069  0.48443970     0.79800
H85         H  0.40041294  0.46683523  0.44481540     0.82000
H86         H  0.48301059  0.39103404  0.39363270     0.79600
H87         H  0.10661192  0.13704501  0.47724659     0.42700
H88         H  0.98023379  0.08262799  0.04344092     0.41600
H89         H  0.38540322  0.45495676  0.00764710     0.41300
H90         H  0.34222169  0.38579548  0.45869127     0.39200
H91         H  0.39988469  0.34442053  0.35679426     0.42400
H92         H  0.47805240  0.36232013  0.33188897     0.37200
H93         H  0.10748432  0.50019197  0.33278760     0.43300
H94         H  0.13470159  0.09405711  0.36569646     0.39700
H95         H  0.33512998  0.34142081  0.43924832     0.44600
H96         H  0.01003872  0.37954345  0.30393312     0.43300
H97         H  0.15088626  0.13486617  0.39518349     0.43500
H98         H  0.48135834  0.08829561  0.03714653     0.43800
O99         O  0.06129266  0.42944351  0.10879594    -0.75000
O100        O  0.05799878  0.43224625  0.16224425    -0.53900
C101        C  0.06838280  0.42235697  0.13116503     0.78700
O102        O  0.08348982  0.11945788  0.15057463    -0.59600
O103        O  0.02005250  0.08810746  0.13554603    -0.52700
C104        C  0.05878931  0.11886905  0.13830032     0.70700
O105        O  0.12669437  0.07859369  0.20260390    -0.74200
O106        O  0.09323440  0.51034427  0.21145867    -0.54800
C107        C  0.12728630  0.05386441  0.21323972     0.76700
O108        O  0.01625604  0.47471542  0.06372446    -0.59300
O109        O  0.48538269  0.00906230  0.08627368    -0.52500
C110        C  0.50062505  0.49247835  0.06153466     0.73300
Zr111      Zr  0.02824493  0.46105914  0.10692788     2.54700
O112        O  0.09286182  0.48936194  0.06921555    -0.79900
O113        O  0.50140676  0.39700125  0.06503918    -0.93300
Zr114      Zr  0.07980049  0.07346971  0.17589300     2.64700
O115        O  0.14658709  0.10190132  0.14083329    -0.98300
O116        O  0.10696406  0.14252211  0.21593141    -0.80300
O117        O  0.06638932  0.50398161  0.15327580    -0.83700
O118        O  0.04370319  0.03111562  0.12847233    -2.18400
O119        O  0.37558564  0.41156272  0.14433079    -0.67100
O120        O  0.40564637  0.47335453  0.12962029    -0.51700
C121        C  0.37448292  0.43525455  0.13301249     0.71700
O122        O  0.47817864  0.00058634  0.27549361    -0.60000
O123        O  0.01161011  0.47033729  0.25390338    -0.52000
C124        C  0.49491496  0.48589833  0.27799144     0.73500
O125        O  0.44352499  0.05885700  0.23416737    -0.71400
O126        O  0.44737166  0.05687525  0.18079358    -0.50100
C127        C  0.43789887  0.06759941  0.21201531     0.74900
O128        O  0.41947634  0.36547794  0.18763655    -0.66700
O129        O  0.48065314  0.39747671  0.20663016    -0.53900
C130        C  0.44270742  0.36578537  0.20133212     0.73200
Zr131      Zr  0.42433441  0.41366285  0.16500336     2.77500
O132        O  0.35652178  0.37705124  0.19791635    -0.97500
O133        O  0.40080904  0.34946535  0.11995179    -0.78300
Zr134      Zr  0.47399695  0.02390796  0.23430972     2.70100
O135        O  0.40569701  0.49579691  0.27043426    -0.79500
O136        O  0.00980585  0.09112036  0.27482512    -0.98600
Zr137      Zr  0.02373158  0.46612385  0.19581902     2.21500
Zr138      Zr  0.47768796  0.01905335  0.14524099     2.11100
O139        O  0.43413663  0.48098080  0.18761008    -2.47300
O140        O  0.45969053  0.45518185  0.21258639    -0.79300
O141        O  0.46449953  0.45072982  0.12223407    -0.71500
O142        O  0.03963498  0.03633128  0.21890145    -2.32500
O143        O  0.49039309  0.42500260  0.14810543    -2.28700
O144        O  0.01326511  0.06151390  0.19286176    -0.73300
H145        H  0.05862988  0.04632758  0.11106461     0.78700
H146        H  0.05441775  0.05168104  0.23806042     0.79800
H147        H  0.40749896  0.47703160  0.19350275     0.82000
H148        H  0.48658535  0.39769373  0.14071197     0.79600
H149        H  0.10688620  0.13731366  0.23611217     0.42700
H150        H  0.98750771  0.09295117  0.29081229     0.41600
H151        H  0.39153149  0.46431476  0.26431917     0.41300
H152        H  0.34848913  0.39730300  0.20624559     0.39200
H153        H  0.41414818  0.36039231  0.09964210     0.42400
H154        H  0.49157768  0.37500430  0.07630030     0.37200
H155        H  0.11030888  0.52057162  0.07924805     0.43300
H156        H  0.13944779  0.09419462  0.11864198     0.39700
H157        H  0.33688119  0.35316276  0.18167900     0.44600
H158        H  0.97007236  0.38679530  0.06321802     0.43300
H159        H  0.16134410  0.13347560  0.14805509     0.43500
H160        H  0.49373177  0.08905381  0.29441942     0.43800
C161        C  0.07662191  0.15598578  0.12580013    -0.05200
C162        C  0.06318085  0.18279840  0.14153195    -0.32600
C163        C  0.08245509  0.22043276  0.13166301     0.36600
C164        C  0.11502227  0.23096955  0.10511167    -0.05600
C165        C  0.12667770  0.20256031  0.08830594    -0.32500
C166        C  0.10811540  0.16561725  0.09879689     0.36500
H167        H  0.03912644  0.17564842  0.16255672     0.16900
O168        O  0.07195594  0.24853639  0.15004866    -0.60000
H169        H  0.15150689  0.21000619  0.06783446     0.16900
O170        O  0.12093389  0.13908370  0.08258694    -0.60100
H171        H  0.14547193  0.15139194  0.09307350     0.43900
H172        H  0.04429995  0.23535795  0.14405385     0.43800
C173        C  0.33340628  0.41661551  0.12482450    -0.05200
C174        C  0.29803919  0.39368545  0.14627918    -0.32600
C175        C  0.25798595  0.37069023  0.13818910     0.36600
C176        C  0.25255938  0.36969860  0.10791135    -0.05600
C177        C  0.28770299  0.39419839  0.08694265    -0.32500
C178        C  0.32820854  0.41761148  0.09524598     0.36500
H179        H  0.30152024  0.39304004  0.16932727     0.16900
O180        O  0.22420842  0.34844201  0.15980331    -0.60000
H181        H  0.28372882  0.39402813  0.06377481     0.16900
O182        O  0.36226560  0.43981098  0.07384299    -0.60100
H183        H  0.37012048  0.41983407  0.06009957     0.43900
H184        H  0.21306598  0.36602587  0.17085284     0.43800
C185        C  0.12888678  0.35956119  0.10527144    -0.05200
C186        C  0.10670395  0.35186979  0.08234744    -0.32600
C187        C  0.08756789  0.37287696  0.08995151     0.36600
C188        C  0.09000163  0.40135092  0.12108800    -0.05600
C189        C  0.11218511  0.40864115  0.14392529    -0.32500
C190        C  0.13148170  0.38806169  0.13622583     0.36500
H191        H  0.10439831  0.32971562  0.05854399     0.16900
O192        O  0.06629760  0.36497900  0.06696625    -0.60000
H193        H  0.11464377  0.43044446  0.16796868     0.16900
O194        O  0.15267413  0.39581866  0.15923899    -0.60100
H195        H  0.13260300  0.37179922  0.17047812     0.43900
H196        H  0.03692661  0.34092281  0.07194413     0.43800
C197        C  0.06303903  0.14118663  0.36529935    -0.05200
C198        C  0.04689338  0.16565718  0.37769381    -0.32600
C199        C  0.06721537  0.20369825  0.36796928     0.36600
C200        C  0.10365413  0.21697982  0.34468378    -0.05600
C201        C  0.11698505  0.18976882  0.33002282    -0.32500
C202        C  0.09731712  0.15252068  0.34046821     0.36500
H203        H  0.02020010  0.15687321  0.39664013     0.16900
O204        O  0.05278824  0.22890686  0.38316772    -0.60000
H205        H  0.14424350  0.19865015  0.31164046     0.16900
O206        O  0.11288721  0.12827965  0.32722607    -0.60100
H207        H  0.09395153  0.10347901  0.31080193     0.43900
H208        H  0.06768399  0.24825723  0.40299071     0.43800
C209        C  0.32347430  0.39695619  0.37365872    -0.05200
C210        C  0.31968403  0.40787794  0.34898846    -0.32600
C211        C  0.28024598  0.38691313  0.33957031     0.36600
C212        C  0.24406407  0.35434386  0.35472502    -0.05600
C213        C  0.24795518  0.34459585  0.37994921    -0.32500
C214        C  0.28688350  0.36510278  0.38923612     0.36500
H215        H  0.34731740  0.43219077  0.33663787     0.16900
O216        O  0.27758875  0.39719706  0.31473217    -0.60000
H217        H  0.22041855  0.32082696  0.39280623     0.16900
O218        O  0.28845266  0.35467512  0.41454083    -0.60100
H219        H  0.28607205  0.32736986  0.40442007     0.43900
H220        H  0.28139773  0.42521179  0.32482346     0.43800
C221        C  0.12430389  0.35141909  0.35054924    -0.05200
C222        C  0.12485235  0.37622537  0.38276941    -0.32600
C223        C  0.10638684  0.39805850  0.39268170     0.36600
C224        C  0.08676431  0.39541246  0.37007227    -0.05600
C225        C  0.08667751  0.37075268  0.33752664    -0.32500
C226        C  0.10486147  0.34839186  0.32784213     0.36500
H227        H  0.13929152  0.37821800  0.40056143     0.16900
O228        O  0.10741607  0.42147512  0.42471229    -0.60000
H229        H  0.07174906  0.36802306  0.31972492     0.16900
O230        O  0.10419105  0.32438212  0.29609524    -0.60100
H231        H  0.07680912  0.29603413  0.29612421     0.43900
H232        H  0.13510086  0.44958692  0.42493478     0.43800
C233        C  0.41894643  0.09147460  0.22272793    -0.05200
C234        C  0.39071545  0.08775361  0.25180721    -0.32600
C235        C  0.37018483  0.10766139  0.26056267     0.36600
C236        C  0.37825787  0.13211303  0.24035280    -0.05600
C237        C  0.40747860  0.13689857  0.21202689    -0.32500
C238        C  0.42749388  0.11678903  0.20304597     0.36500
H239        H  0.38365011  0.06841542  0.26725901     0.16900
O240        O  0.34207342  0.10264286  0.28860419    -0.60000
H241        H  0.41397626  0.15535370  0.19602811     0.16900
O242        O  0.45584609  0.12262985  0.17508449    -0.60100
H243        H  0.43879514  0.10335764  0.15640166     0.43900
H244        H  0.35818714  0.12837530  0.30596056     0.43800
C245        C  0.38176065  0.24944384  0.23037152    -0.05200
C246        C  0.40888329  0.28901143  0.25074091    -0.32600
C247        C  0.42967480  0.32744063  0.24139489     0.36600
C248        C  0.42378962  0.32628433  0.21119449    -0.05600
C249        C  0.39741191  0.28656764  0.19061214    -0.32500
C250        C  0.37650997  0.24837456  0.19996105     0.36500
H251        H  0.41298059  0.29012916  0.27424707     0.16900
O252        O  0.45443156  0.36591377  0.26235838    -0.60000
H253        H  0.39287142  0.28512317  0.16715401     0.16900
O254        O  0.35173284  0.20994940  0.17887454    -0.60100
H255        H  0.32550849  0.20714706  0.18112600     0.43900
H256        H  0.43540880  0.37406024  0.27678450     0.43800
C257        C  0.16561539  0.07244975  0.22629036    -0.05200
C258        C  0.18603658  0.05205139  0.21361637    -0.32600
C259        C  0.22582636  0.07246309  0.22186412     0.36600
C260        C  0.24497640  0.11326871  0.24412028    -0.05600
C261        C  0.22234488  0.13140114  0.25913161    -0.32500
C262        C  0.18380394  0.11214254  0.24949385     0.36500
H263        H  0.17248021  0.02164321  0.19543062     0.16900
O264        O  0.24730169  0.05436709  0.20538628    -0.60000
H265        H  0.23607359  0.16237645  0.27664755     0.16900
O266        O  0.16461321  0.13288460  0.26227742    -0.60100
H267        H  0.17884690  0.15466850  0.24931443     0.43900
H268        H  0.23521638  0.03102588  0.21608171     0.43800
C269        C  0.40509590  0.07706084  0.46867116    -0.05200
C270        C  0.41085526  0.09809358  0.44671422    -0.32600
C271        C  0.39268641  0.11990806  0.45497162     0.36600
C272        C  0.36860450  0.12147942  0.48573597    -0.05600
C273        C  0.36219599  0.10026057  0.50774570    -0.32500
C274        C  0.38065910  0.07841875  0.49953804     0.36500
H275        H  0.42960986  0.09772690  0.42294388     0.16900
O276        O  0.39824406  0.13932444  0.43262444    -0.60000
H277        H  0.34303715  0.10077382  0.53126189     0.16900
O278        O  0.37322985  0.05712774  0.52119227    -0.60100
H279        H  0.39267407  0.07958125  0.53795412     0.43900
H280        H  0.37488305  0.11692716  0.41896721     0.43800
C281        C  0.42905499  0.33205226  0.47327214    -0.05200
C282        C  0.44393786  0.30644641  0.45846049    -0.32600
C283        C  0.42308049  0.26729858  0.46652980     0.36600
C284        C  0.38717555  0.25385871  0.49021287    -0.05600
C285        C  0.36821158  0.27714416  0.00611220    -0.32500
C286        C  0.39513479  0.32023917  0.49840116     0.36500
H287        H  0.46990374  0.31527063  0.43887594     0.16900
O288        O  0.43529048  0.24051771  0.44858483    -0.60000
H289        H  0.33992622  0.26660520  0.02346833     0.16900
O290        O  0.37266394  0.33980236  0.01187884    -0.60100
H291        H  0.38849607  0.36147775  0.03087772     0.43900
H292        H  0.46146756  0.25320299  0.45689995     0.43800
C293        C  0.16703286  0.07467814  0.46578185    -0.05200
C294        C  0.19060913  0.05811231  0.44886309    -0.32600
C295        C  0.23029813  0.07861883  0.45714049     0.36600
C296        C  0.24637379  0.11576967  0.48327198    -0.05600
C297        C  0.21814229  0.12744304  0.00231056    -0.32500
C298        C  0.18292731  0.11170764  0.49170412     0.36500
H299        H  0.17900758  0.03033940  0.42820487     0.16900
O300        O  0.25445389  0.06430319  0.43781943    -0.60000
H301        H  0.23032425  0.15648962  0.02191392     0.16900
O302        O  0.15746949  0.12573429  0.00884462    -0.60100
H303        H  0.16640534  0.14569068  0.99576696     0.43900
H304        H  0.24145545  0.03669745  0.44301911     0.43800
C305        C  0.34937253  0.14430082  0.49374679     0.03400
C306        C  0.30655431  0.12075598  0.49194316    -0.12800
C307        C  0.28994147  0.14091673  0.49033056     0.00900
C308        C  0.31640349  0.18511171  0.49180546    -0.11300
C309        C  0.35921301  0.20913185  0.49420315     0.03400
C310        C  0.37529641  0.18861418  0.49596372    -0.10700
H311        H  0.28688211  0.08638175  0.48968297     0.09000
H312        H  0.30417787  0.20023612  0.48865471     0.06500
H313        H  0.40846266  0.20640145  0.49696108     0.06300
C314        C  0.35287680  0.14976305  0.74719301     0.03400
C315        C  0.37579124  0.19224187  0.74432706    -0.12800
C316        C  0.35550579  0.20762602  0.74109859     0.00900
C317        C  0.31187455  0.18165962  0.74319118    -0.11300
C318        C  0.28807555  0.13950029  0.74683214     0.03400
C319        C  0.30886693  0.12383282  0.74917388    -0.10700
H320        H  0.40970859  0.21214080  0.74180786     0.09000
H321        H  0.29667045  0.19359784  0.73969996     0.06500
H322        H  0.29112987  0.09084502  0.75060565     0.06300
C323        C  0.14052040  0.32533044  0.84313472     0.03400
C324        C  0.18296402  0.34769758  0.84590217    -0.12800
C325        C  0.19877178  0.32575672  0.84517516     0.00900
C326        C  0.17163503  0.28104520  0.84145583    -0.11300
C327        C  0.12878222  0.25834620  0.83979460     0.03400
C328        C  0.11370529  0.28060755  0.83945340    -0.10700
H329        H  0.20284801  0.38248704  0.85100773     0.09000
H330        H  0.18342734  0.26443411  0.84259558     0.06500
H331        H  0.08061827  0.26381901  0.83885632     0.06300
C332        C  0.15070497  0.33773697  0.59550627     0.03400
C333        C  0.12608701  0.29415130  0.59564803    -0.12800
C334        C  0.14458889  0.27577629  0.59714411     0.00900
C335        C  0.18808365  0.30084369  0.59661867    -0.11300
C336        C  0.21269751  0.34452190  0.59690568     0.03400
C337        C  0.19408080  0.36273006  0.59572863    -0.10700
H338        H  0.09234321  0.27561763  0.59726713     0.09000
H339        H  0.20239348  0.28758447  0.59948020     0.06500
H340        H  0.21258949  0.39709374  0.59818840     0.06300
O341        O  0.05525401  0.42071497  0.85786196    -0.75000
O342        O  0.05511955  0.42737234  0.91154616    -0.53900
C343        C  0.06398740  0.41546864  0.88042912     0.78700
O344        O  0.07029196  0.10533071  0.89090047    -0.59600
O345        O  0.00454407  0.07270602  0.87989197    -0.54100
C346        C  0.04377373  0.10308521  0.87952842     0.70700
O347        O  0.12150944  0.07362269  0.94415374    -0.74200
O348        O  0.09440861  0.51260217  0.95729040    -0.54800
C349        C  0.12367647  0.05084973  0.95587565     0.76700
O350        O  0.00659073  0.46282450  0.81263957    -0.59300
O351        O  0.47169433  0.99228628  0.83393593    -0.52500
C352        C  0.49011058  0.47928671  0.81050899     0.73300
Zr353      Zr  0.01928525  0.44947610  0.85590072     2.54700
O354        O  0.08213473  0.47706776  0.81634912    -0.79900
O355        O  0.49072064  0.38182720  0.81592885    -0.93300
Zr356      Zr  0.07031602  0.06506734  0.92002499     2.64700
O357        O  0.13721257  0.09825913  0.88537428    -0.98300
O358        O  0.09392086  0.13406526  0.95946132    -0.80300
O359        O  0.06121077  0.49755942  0.89988270    -0.83700
O360        O  0.03050366  0.01767853  0.87510887    -2.18400
O361        O  0.36609071  0.39403961  0.89517411    -0.67100
O362        O  0.39206067  0.45379381  0.87944665    -0.51700
C363        C  0.36247817  0.41531211  0.88306826     0.71700
O364        O  0.48096460  0.00704398  0.52639113    -0.60000
O365        O  0.01835998  0.47702977  0.50428987    -0.52000
C366        C  0.50078754  0.49267185  0.52865071     0.73500
O367        O  0.43443067  0.04910709  0.98099162    -0.71400
O368        O  0.43234227  0.04097143  0.92740826    -0.50100
C369        C  0.42521762  0.05417838  0.95870649     0.74900
O370        O  0.41533199  0.36381221  0.94952215    -0.66700
O371        O  0.48100431  0.39514278  0.95975309    -0.53900
C372        C  0.44151950  0.36539781  0.96059447     0.73200
Zr373      Zr  0.41705474  0.40371817  0.91954382     2.77500
O374        O  0.35310268  0.37617074  0.95811167    -0.97500
O375        O  0.39021145  0.33333363  0.88155630    -0.78300
Zr376      Zr  0.46805427  0.01792915  0.98218165     2.70100
O377        O  0.40364894  0.48943603  0.52049098    -0.79500
O378        O  0.00465708  0.09293997  0.52054106    -0.98600
Zr379      Zr  0.02316700  0.46410916  0.94510455     2.21500
Zr380      Zr  0.46371710  0.00352700  0.89292014     2.11100
O381        O  0.42567163  0.47045094  0.93844192    -2.47300
O382        O  0.45670750  0.45040347  0.96443960    -0.79300
O383        O  0.45322224  0.43601912  0.87382963    -0.71500
O384        O  0.03417315  0.03223602  0.96544048    -2.32500
O385        O  0.48316207  0.41518262  0.90015820    -2.28700
O386        O  0.00376334  0.05285663  0.93920237    -0.73300
H387        H  0.04438019  0.03132976  0.85684120     0.78700
H388        H  0.05064530  0.04947068  0.98367263     0.79800
H389        H  0.39872547  0.46592767  0.94475274     0.82000
H390        H  0.47973151  0.38815870  0.89402891     0.79600
H391        H  0.08085785  0.12693571  0.98127718     0.42700
H392        H  0.98415883  0.09060670  0.54050615     0.41600
H393        H  0.38432741  0.45992837  0.50789149     0.41300
H394        H  0.34231199  0.39253784  0.95985671     0.39200
H395        H  0.40007513  0.33925869  0.85934653     0.42400
H396        H  0.48376845  0.36124033  0.82736079     0.37200
H397        H  0.10502932  0.50092707  0.83005890     0.43300
H398        H  0.12980626  0.08884739  0.86292623     0.39700
H399        H  0.33294387  0.34660836  0.94611061     0.44600
H400        H  0.00752883  0.37717023  0.80368709     0.43300
H401        H  0.14923273  0.12931629  0.89226947     0.43500
H402        H  0.52545037  0.09106719  0.52751988     0.43800
O403        O  0.06286932  0.42949556  0.60779432    -0.75000
O404        O  0.06017843  0.43290524  0.66125163    -0.53900
C405        C  0.07011611  0.42253349  0.63009274     0.78700
O406        O  0.08481427  0.12100239  0.65170572    -0.59600
O407        O  0.02229544  0.09084957  0.63573751    -0.52700
C408        C  0.06102280  0.12123781  0.63904746     0.70700
O409        O  0.12456834  0.07614217  0.70241012    -0.74200
O410        O  0.09530271  0.51337186  0.71266510    -0.54800
C411        C  0.12441941  0.05098297  0.71309185     0.76700
O412        O  0.01774120  0.47497542  0.56376219    -0.59300
O413        O  0.48403945  0.00925997  0.58654107    -0.52500
C414        C  0.50120724  0.49236358  0.56171496     0.73300
Zr415      Zr  0.02984716  0.46129895  0.60680225     2.54700
O416        O  0.09463369  0.48839089  0.56925022    -0.79900
O417        O  0.49398137  0.39087018  0.56851123    -0.93300
Zr418      Zr  0.07868700  0.07287370  0.67620402     2.64700
O419        O  0.14539984  0.10071787  0.64094503    -0.98300
O420        O  0.10694729  0.14119959  0.71711201    -0.80300
O421        O  0.06833660  0.50478128  0.65304025    -0.83700
O422        O  0.04318773  0.03171995  0.62859689    -2.18400
O423        O  0.37624117  0.41219921  0.64343659    -0.67100
O424        O  0.40695055  0.47514156  0.63019000    -0.51700
C425        C  0.37576087  0.43675254  0.63264194     0.71700
O426        O  0.47607785  0.99845033  0.77498633    -0.60000
O427        O  0.01346951  0.47152363  0.75373580    -0.52000
C428        C  0.49323841  0.48346721  0.77792184     0.73500
O429        O  0.43893647  0.05502457  0.73444903    -0.71400
O430        O  0.44363105  0.05442465  0.68128696    -0.50100
C431        C  0.43348504  0.06421055  0.71251738     0.74900
O432        O  0.41821092  0.36421627  0.68744493    -0.66700
O433        O  0.47925504  0.39547079  0.70624911    -0.53900
C434        C  0.44135507  0.36400770  0.70082343     0.73200
Zr435      Zr  0.42286542  0.41359005  0.66639673     2.77500
O436        O  0.35756625  0.38399159  0.70328308    -0.97500
O437        O  0.39232046  0.34556889  0.62531271    -0.78300
Zr438      Zr  0.47098048  0.02135886  0.73393827     2.70100
O439        O  0.40787907  0.49804310  0.77246110    -0.79500
O440        O  0.00589426  0.08954077  0.77568435    -0.98600
Zr441      Zr  0.02609579  0.46706141  0.69564504     2.21500
Zr442      Zr  0.47567552  0.01837770  0.64534305     2.11100
O443        O  0.43432974  0.48169773  0.68830264    -2.47300
O444        O  0.45917245  0.45496674  0.71339545    -0.79300
O445        O  0.46305272  0.44952984  0.62292600    -0.71500
O446        O  0.03714664  0.03516176  0.71881727    -2.32500
O447        O  0.48805923  0.42295510  0.64888237    -2.28700
O448        O  0.01265095  0.06223428  0.69341303    -0.73300
H449        H  0.05869820  0.04732530  0.61142233     0.78700
H450        H  0.05177030  0.04995727  0.73799887     0.79800
H451        H  0.40798618  0.47836599  0.69412493     0.82000
H452        H  0.48373276  0.39540604  0.64161316     0.79600
H453        H  0.09104821  0.13338814  0.73843249     0.42700
H454        H  0.98400226  0.08660160  0.79462456     0.41600
H455        H  0.38955045  0.46684753  0.76262058     0.41300
H456        H  0.35170890  0.40588132  0.71077928     0.39200
H457        H  0.41656442  0.34723113  0.60990901     0.42400
H458        H  0.51430064  0.39414058  0.54830932     0.37200
H459        H  0.10642191  0.51886761  0.57220442     0.43300
H460        H  0.13839884  0.09376386  0.61888439     0.39700
H461        H  0.33598945  0.35964011  0.68859854     0.44600
H462        H  0.01712369  0.39298023  0.54997356     0.43300
H463        H  0.16078610  0.13235390  0.64850460     0.43500
H464        H  0.52212145  0.08611666  0.78552842     0.43800
C465        C  0.07993895  0.15886466  0.62673763    -0.05200
C466        C  0.06869463  0.18742208  0.64344313    -0.32600
C467        C  0.08833235  0.22487995  0.63318980     0.36600
C468        C  0.11892244  0.23347783  0.60528639    -0.05600
C469        C  0.12901670  0.20390348  0.58796835    -0.32500
C470        C  0.11010654  0.16706290  0.59879452     0.36500
H471        H  0.04591490  0.18155983  0.66529989     0.16900
O472        O  0.08011778  0.25460559  0.65224527    -0.60000
H473        H  0.15268303  0.21018585  0.56667423     0.16900
O474        O  0.12125036  0.13921093  0.58197522    -0.60100
H475        H  0.14596707  0.15056930  0.59173827     0.43900
H476        H  0.05260597  0.24302232  0.64703320     0.43800
C477        C  0.33527127  0.41899020  0.62417593    -0.05200
C478        C  0.29973113  0.39755362  0.64604084    -0.32600
C479        C  0.25991995  0.37467718  0.63759326     0.36600
C480        C  0.25503692  0.37242907  0.60660796    -0.05600
C481        C  0.29043438  0.39585570  0.58530874    -0.32500
C482        C  0.33070684  0.41913886  0.59397179     0.36500
H483        H  0.30289651  0.39769742  0.66955953     0.16900
O484        O  0.22582174  0.35328484  0.65937009    -0.60000
H485        H  0.28682753  0.39470959  0.56159384     0.16900
O486        O  0.36512344  0.44013362  0.57230621    -0.60100
H487        H  0.37135028  0.41889653  0.55844834     0.43900
H488        H  0.21541035  0.37155513  0.67003654     0.43800
C489        C  0.13042184  0.35941839  0.60335655    -0.05200
C490        C  0.11033100  0.35386867  0.57987576    -0.32600
C491        C  0.09060803  0.37438059  0.58793036     0.36600
C492        C  0.09140052  0.40112896  0.61977500    -0.05600
C493        C  0.11156594  0.40621334  0.64307591    -0.32500
C494        C  0.13034901  0.38513938  0.63522910     0.36500
H495        H  0.10971980  0.33342487  0.55544750     0.16900
O496        O  0.07003995  0.36731432  0.56479125    -0.60000
H497        H  0.11248774  0.42630991  0.66773541     0.16900
O498        O  0.14814923  0.38938932  0.65907442    -0.60100
H499        H  0.12657797  0.36355966  0.66815966     0.43900
H500        H  0.04060080  0.34297809  0.56919326     0.43800
C501        C  0.05987916  0.13808314  0.86493675    -0.05200
C502        C  0.04525152  0.16393676  0.87908902    -0.32600
C503        C  0.06540126  0.20191454  0.86940443     0.36600
C504        C  0.09996511  0.21366824  0.84438033    -0.05600
C505        C  0.11147253  0.18505500  0.82797327    -0.32500
C506        C  0.09193614  0.14773139  0.83832135     0.36500
H507        H  0.02012868  0.15631818  0.89934873     0.16900
O508        O  0.05309791  0.22876564  0.88643749    -0.60000
H509        H  0.13740223  0.19300470  0.80837945     0.16900
O510        O  0.10561922  0.12185725  0.82329231    -0.60100
H511        H  0.08512632  0.09755218  0.80770549     0.43900
H512        H  0.07141703  0.24912880  0.90425930     0.43800
C513        C  0.32079931  0.39350733  0.87344333    -0.05200
C514        C  0.31672475  0.40412826  0.84875837    -0.32600
C515        C  0.27724675  0.38250777  0.83913152     0.36600
C516        C  0.24125414  0.34976836  0.85422514    -0.05600
C517        C  0.24536501  0.34002189  0.87932327    -0.32500
C518        C  0.28439022  0.36117658  0.88881254     0.36500
H519        H  0.34419689  0.42864090  0.83648935     0.16900
O520        O  0.27436001  0.39222470  0.81404651    -0.60000
H521        H  0.21794296  0.31596025  0.89201551     0.16900
O522        O  0.28621838  0.35094295  0.91411945    -0.60100
H523        H  0.28470467  0.32410632  0.90391316     0.43900
H524        H  0.27809203  0.42021764  0.82384219     0.43800
C525        C  0.12263890  0.34959813  0.85118362    -0.05200
C526        C  0.12423626  0.37563104  0.88302315    -0.32600
C527        C  0.10563730  0.39734363  0.89273210     0.36600
C528        C  0.08526932  0.39378746  0.87018094    -0.05600
C529        C  0.08436190  0.36810035  0.83795432    -0.32500
C530        C  0.10239362  0.34561643  0.82856581     0.36500
H531        H  0.13925659  0.37837576  0.90078383     0.16900
O532        O  0.10699893  0.42128140  0.92460086    -0.60000
H533        H  0.06881887  0.36459258  0.82021045     0.16900
O534        O  0.10075131  0.32048544  0.79715802    -0.60100
H535        H  0.07346405  0.29223352  0.79800246     0.43900
H536        H  0.13428906  0.44967184  0.92435661     0.43800
C537        C  0.41468724  0.08823430  0.72351614    -0.05200
C538        C  0.38391544  0.08187560  0.75103872    -0.32600
C539        C  0.36402725  0.10246607  0.75983772     0.36600
C540        C  0.37537835  0.13034977  0.74131529    -0.05600
C541        C  0.40722650  0.13772603  0.71466846    -0.32500
C542        C  0.42653062  0.11688110  0.70561092     0.36500
H543        H  0.37437099  0.05994037  0.76510051     0.16900
O544        O  0.33311409  0.09449604  0.78609249    -0.60000
H545        H  0.41625012  0.15857364  0.69976900     0.16900
O546        O  0.45748106  0.12524909  0.67933479    -0.60100
H547        H  0.44267110  0.10830595  0.65937539     0.43900
H548        H  0.34752842  0.11732199  0.80538046     0.43800
C549        C  0.37969634  0.24779291  0.73021813    -0.05200
C550        C  0.40910473  0.28711845  0.74933643    -0.32600
C551        C  0.43042363  0.32538694  0.73961859     0.36600
C552        C  0.42238693  0.32438230  0.71047697    -0.05600
C553        C  0.39410566  0.28484172  0.69087947    -0.32500
C554        C  0.37308095  0.24674106  0.70039796     0.36500
H555        H  0.41474646  0.28822088  0.77214901     0.16900
O556        O  0.45804565  0.36362450  0.75918711    -0.60000
H557        H  0.38828974  0.28342875  0.66800596     0.16900
O558        O  0.34716493  0.20834521  0.67985573    -0.60100
H559        H  0.32154622  0.20669186  0.68224226     0.43900
H560        H  0.44138942  0.37458407  0.77403775     0.43800
C561        C  0.16247484  0.06938720  0.72649380    -0.05200
C562        C  0.18326558  0.04938912  0.71383090    -0.32600
C563        C  0.22337974  0.07045973  0.72181053     0.36600
C564        C  0.24248588  0.11152155  0.74379221    -0.05600
C565        C  0.21955461  0.12929330  0.75879084    -0.32500
C566        C  0.18063362  0.10931777  0.74947302     0.36500
H567        H  0.16980460  0.01886906  0.69575991     0.16900
O568        O  0.24516628  0.05271579  0.70528073    -0.60000
H569        H  0.23319678  0.16041360  0.77612569     0.16900
O570        O  0.16105280  0.12966436  0.76225057    -0.60100
H571        H  0.17504733  0.15143317  0.74932359     0.43900
H572        H  0.23346088  0.02954123  0.71602734     0.43800
C573        C  0.40564248  0.07746099  0.96943486    -0.05200
C574        C  0.41232832  0.09992116  0.94825949    -0.32600
C575        C  0.39367084  0.12132665  0.95672138     0.36600
C576        C  0.36772613  0.12067776  0.98681374    -0.05600
C577        C  0.36083768  0.09845923  0.00821349    -0.32500
C578        C  0.38011414  0.07738310  0.99993632     0.36500
H579        H  0.43214333  0.10091531  0.92490853     0.16900
O580        O  0.40047778  0.14235394  0.93510792    -0.60000
H581        H  0.34062852  0.09756321  0.03131694     0.16900
O582        O  0.37239382  0.05540385  0.02114295    -0.60100
H583        H  0.39158518  0.07751245  0.03813935     0.43900
H584        H  0.37633563  0.12160670  0.92211706     0.43800
C585        C  0.42453559  0.32954079  0.97442847    -0.05200
C586        C  0.44112208  0.30549680  0.96127789    -0.32600
C587        C  0.42030470  0.26617775  0.96905423     0.36600
C588        C  0.38252086  0.25085596  0.99081377    -0.05600
C589        C  0.37459957  0.28149370  0.50687892    -0.32500
C590        C  0.38875281  0.31603809  0.99788543     0.36500
H591        H  0.46863583  0.31567870  0.94309682     0.16900
O592        O  0.43492978  0.24125935  0.95266224    -0.60000
H593        H  0.34745076  0.27199341  0.52539710     0.16900
O594        O  0.38065699  0.34541538  0.51365207    -0.60100
H595        H  0.39256255  0.36189687  0.53495064     0.43900
H596        H  0.46026606  0.25510613  0.96277561     0.43800
C597        C  0.16320287  0.07060985  0.96734779    -0.05200
C598        C  0.18575324  0.05269411  0.95176339    -0.32600
C599        C  0.22522226  0.07283927  0.96030340     0.36600
C600        C  0.24211050  0.11101160  0.98552260    -0.05600
C601        C  0.22203532  0.13157954  0.50066307    -0.32500
C602        C  0.17934869  0.10798767  0.99293595     0.36500
H603        H  0.17377710  0.02435597  0.93158697     0.16900
O604        O  0.24857391  0.05732949  0.94171743    -0.60000
H605        H  0.23388309  0.16011307  0.52073228     0.16900
O606        O  0.16024982  0.12840635  0.50856985    -0.60100
H607        H  0.17170296  0.15204996  0.49845211     0.43900
H608        H  0.23524679  0.03033013  0.94805911     0.43800
C609        C  0.34592680  0.64160511  0.99434578     0.03400
C610        C  0.30302639  0.61758273  0.99252044    -0.12800
C611        C  0.28589767  0.63733939  0.99103804     0.00900
C612        C  0.31200312  0.68149589  0.99233516    -0.11300
C613        C  0.35485784  0.70603686  0.99488786     0.03400
C614        C  0.37128303  0.68595577  0.99688311    -0.10700
H615        H  0.28369187  0.58323007  0.99025030     0.09000
H616        H  0.29939002  0.69618814  0.98908317     0.06500
H617        H  0.40436556  0.70413808  0.99838242     0.06300
C618        C  0.35215336  0.64916185  0.24536888     0.03400
C619        C  0.37456651  0.69173463  0.24304849    -0.12800
C620        C  0.35380623  0.70703596  0.24052260     0.00900
C621        C  0.31010951  0.68084864  0.24318071    -0.11300
C622        C  0.28698876  0.63818970  0.24533544     0.03400
C623        C  0.30822003  0.62260905  0.24687785    -0.10700
H624        H  0.40849151  0.71177534  0.24037966     0.09000
H625        H  0.29426981  0.69286751  0.24098450     0.06500
H626        H  0.29091589  0.58930194  0.24732101     0.06300
C627        C  0.14068765  0.82615265  0.34324442     0.03400
C628        C  0.18315534  0.84895837  0.34623075    -0.12800
C629        C  0.19929093  0.82749776  0.34584118     0.00900
C630        C  0.17252698  0.78276961  0.34200587    -0.11300
C631        C  0.12970108  0.75970354  0.34017082     0.03400
C632        C  0.11426696  0.78142551  0.33942890    -0.10700
H633        H  0.20270078  0.88375119  0.35146805     0.09000
H634        H  0.18449284  0.76641574  0.34333522     0.06500
H635        H  0.08110557  0.76427541  0.33884799     0.06300
C636        C  0.15190704  0.83774108  0.09395663     0.03400
C637        C  0.12631222  0.79396399  0.09395524    -0.12800
C638        C  0.14362537  0.77450673  0.09573351     0.00900
C639        C  0.18714082  0.79889157  0.09547400    -0.11300
C640        C  0.21287569  0.84245098  0.09501383     0.03400
C641        C  0.19532379  0.86140878  0.09327865    -0.10700
H642        H  0.09272351  0.77613496  0.09513898     0.09000
H643        H  0.20072532  0.78519104  0.09880458     0.06500
H644        H  0.21480412  0.89566436  0.09492553     0.06300
O645        O  0.05675375  0.92297594  0.35976751    -0.75000
O646        O  0.05675289  0.92953639  0.41340042    -0.53900
C647        C  0.06532114  0.91748170  0.38224068     0.78700
O648        O  0.07085690  0.60745416  0.39289757    -0.59600
O649        O  0.00539483  0.57402869  0.38074322    -0.54100
C650        C  0.04446387  0.60503943  0.38125400     0.70700
O651        O  0.12230010  0.57551776  0.44479318    -0.74200
O652        O  0.09749315  0.01561129  0.45768620    -0.54800
C653        C  0.12515089  0.55258687  0.45564909     0.76700
O654        O  0.00915288  0.96461496  0.31372267    -0.59300
O655        O  0.47401782  0.49663380  0.33514197    -0.52500
C656        C  0.49052589  0.97844875  0.30999303     0.73300
Zr657      Zr  0.02166354  0.95234211  0.35761523     2.54700
O658        O  0.08533387  0.97858697  0.31883339    -0.79900
O659        O  0.48613143  0.87852750  0.31922063    -0.93300
Zr660      Zr  0.07080807  0.56583046  0.42035400     2.64700
O661        O  0.13606925  0.59505991  0.38329038    -0.98300
O662        O  0.09683093  0.63544371  0.45941913    -0.80300
O663        O  0.06339185  0.00085871  0.40161490    -0.83700
O664        O  0.03117533  0.51878936  0.37529184    -2.18400
O665        O  0.36623771  0.89515495  0.39629719    -0.67100
O666        O  0.39267984  0.95398602  0.37899297    -0.51700
C667        C  0.36282452  0.91601168  0.38348531     0.71700
O668        O  0.48187964  0.50755628  0.02615040    -0.60000
O669        O  0.01717979  0.97603172  0.00441946    -0.52000
C670        C  0.50011032  0.99153142  0.02829100     0.73500
O671        O  0.43242347  0.54789841  0.48218518    -0.71400
O672        O  0.43173639  0.54118256  0.42857922    -0.50100
C673        C  0.42339325  0.55308218  0.45986145     0.74900
O674        O  0.41667934  0.86406024  0.44958586    -0.66700
O675        O  0.48248165  0.89591164  0.45992440    -0.53900
C676        C  0.44306793  0.86593067  0.46069870     0.73200
Zr677      Zr  0.41728174  0.90371206  0.41988697     2.77500
O678        O  0.35356267  0.87482769  0.45853122    -0.97500
O679        O  0.39025369  0.83361224  0.38137467    -0.78300
Zr680      Zr  0.46837693  0.51904919  0.48310342     2.70100
O681        O  0.40342665  0.98897885  0.01967458    -0.79500
O682        O  0.00328448  0.58900462  0.02055584    -0.98600
Zr683      Zr  0.02540821  0.96703400  0.44655436     2.21500
Zr684      Zr  0.46575659  0.50669669  0.39395612     2.11100
O685        O  0.42606160  0.97055428  0.43853139    -2.47300
O686        O  0.45731539  0.95080863  0.46456486    -0.79300
O687        O  0.45282546  0.93566487  0.37393760    -0.71500
O688        O  0.03443028  0.53253116  0.46547361    -2.32500
O689        O  0.48339281  0.91524023  0.40052549    -2.28700
O690        O  0.00394790  0.55312102  0.43930045    -0.73300
H691        H  0.04495981  0.53267124  0.35715383     0.78700
H692        H  0.05080835  0.54980561  0.48376492     0.79800
H693        H  0.39911336  0.96603419  0.44493864     0.82000
H694        H  0.48004914  0.88828178  0.39454132     0.79600
H695        H  0.10025449  0.63214930  0.47903521     0.42700
H696        H  0.01475400  0.60961956  0.00726122     0.41600
H697        H  0.38628893  0.95781914  0.00934816     0.41300
H698        H  0.34290443  0.89171591  0.46141882     0.39200
H699        H  0.39127757  0.83813479  0.36047967     0.42400
H700        H  0.47736056  0.85889180  0.33248219     0.37200
H701        H  0.10479404  0.00902099  0.32990499     0.43300
H702        H  0.12752131  0.58612987  0.36140369     0.39700
H703        H  0.33326572  0.84574202  0.44602060     0.44600
H704        H  0.00771932  0.87986781  0.30477124     0.43300
H705        H  0.15005729  0.62652230  0.39005328     0.43500
H706        H  0.52164173  0.59119581  0.02925485     0.43800
O707        O  0.06360027  0.92981644  0.10854706    -0.75000
O708        O  0.06354530  0.93512636  0.16197419    -0.53900
C709        C  0.07217454  0.92387301  0.13069052     0.78700
O710        O  0.08248145  0.61962283  0.15059745    -0.59600
O711        O  0.01975433  0.58877399  0.13458236    -0.52700
C712        C  0.05843019  0.61945539  0.13785028     0.70700
O713        O  0.12444248  0.57418214  0.19933885    -0.74200
O714        O  0.09728710  0.01424576  0.21293829    -0.54800
C715        C  0.12415877  0.54927242  0.21047023     0.76700
O716        O  0.01729773  0.97440900  0.06411448    -0.59300
O717        O  0.48393461  0.50873441  0.08614595    -0.52500
C718        C  0.50112702  0.99190291  0.06147757     0.73300
Zr719      Zr  0.03201672  0.96301700  0.10725113     2.54700
O720        O  0.09903795  0.99779699  0.07317391    -0.79900
O721        O  0.50049430  0.89302904  0.06653473    -0.93300
Zr722      Zr  0.07782847  0.57222228  0.17508385     2.64700
O723        O  0.14502301  0.60233290  0.14054352    -0.98300
O724        O  0.10521826  0.63950432  0.21721159    -0.80300
O725        O  0.06987818  0.00596026  0.15385032    -0.83700
O726        O  0.04154296  0.53006489  0.12782837    -2.18400
O727        O  0.37642836  0.91227423  0.14397703    -0.67100
O728        O  0.40750748  0.97456468  0.12961135    -0.51700
C729        C  0.37602565  0.93638178  0.13256649     0.71700
O730        O  0.47813262  0.50274662  0.27605198    -0.60000
O731        O  0.01496758  0.97189583  0.25441527    -0.52000
C732        C  0.49374230  0.98252560  0.27734750     0.73500
O733        O  0.44091123  0.55788805  0.23335574    -0.71400
O734        O  0.44443460  0.55560047  0.17992649    -0.50100
C735        C  0.43497315  0.56625440  0.21113105     0.74900
O736        O  0.41959430  0.86498837  0.18705055    -0.66700
O737        O  0.48096234  0.89462761  0.20435497    -0.53900
C738        C  0.44268892  0.86385200  0.19963668     0.73200
Zr739      Zr  0.42424755  0.91378485  0.16548870     2.77500
O740        O  0.35841723  0.88208788  0.20150159    -0.97500
O741        O  0.39410290  0.84731556  0.12274519    -0.78300
Zr742      Zr  0.47164392  0.52351824  0.23423435     2.70100
O743        O  0.41076841  0.00091509  0.27360325    -0.79500
O744        O  0.00933493  0.59091631  0.27504127    -0.98600
Zr745      Zr  0.02790063  0.96773151  0.19620659     2.21500
Zr746      Zr  0.47603040  0.51904934  0.14504913     2.11100
O747        O  0.43550430  0.98173147  0.18814175    -2.47300
O748        O  0.46023179  0.95474386  0.21270106    -0.79300
O749        O  0.46478642  0.95011618  0.12235657    -0.71500
O750        O  0.03749021  0.53557477  0.21838009    -2.32500
O751        O  0.48955172  0.92312812  0.14793025    -2.28700
O752        O  0.01197997  0.56170905  0.19240315    -0.73300
H753        H  0.05680201  0.54533083  0.11044252     0.78700
H754        H  0.05254698  0.55065227  0.23737404     0.79800
H755        H  0.40914994  0.97839026  0.19411784     0.82000
H756        H  0.48543449  0.89566769  0.14044422     0.79600
H757        H  0.09854639  0.63129831  0.23796405     0.42700
H758        H  0.02199536  0.61349081  0.26335430     0.41600
H759        H  0.39020821  0.97068578  0.26290315     0.41300
H760        H  0.35207870  0.90366568  0.20956663     0.39200
H761        H  0.41304271  0.83854429  0.11773529     0.42400
H762        H  0.51918470  0.89924318  0.04561478     0.37200
H763        H  0.11987060  0.01817402  0.08911856     0.43300
H764        H  0.13804713  0.59423137  0.11820182     0.39700
H765        H  0.33723394  0.85803576  0.18641706     0.44600
H766        H  0.02791983  0.89776077  0.05038311     0.43300
H767        H  0.15900061  0.63379563  0.14773569     0.43500
H768        H  0.48527865  0.58919429  0.29345057     0.43800
C769        C  0.07715057  0.65674342  0.12503324    -0.05200
C770        C  0.06318378  0.68321030  0.13928608    -0.32600
C771        C  0.08307656  0.72071047  0.12888364     0.36600
C772        C  0.11685270  0.73148037  0.10321649    -0.05600
C773        C  0.12886678  0.70323489  0.08773827    -0.32500
C774        C  0.10978542  0.66657926  0.09886398     0.36500
H775        H  0.03815193  0.67590551  0.15960155     0.16900
O776        O  0.07176393  0.74839696  0.14595521    -0.60000
H777        H  0.15439002  0.71058958  0.06782063     0.16900
O778        O  0.12320562  0.64045006  0.08403476    -0.60100
H779        H  0.14798199  0.65404098  0.09478351     0.43900
H780        H  0.04450535  0.73465780  0.13890493     0.43800
C781        C  0.33545253  0.91803488  0.12352850    -0.05200
C782        C  0.29957209  0.89668365  0.14523753    -0.32600
C783        C  0.25983219  0.87330211  0.13627269     0.36600
C784        C  0.25526721  0.86998219  0.10479335    -0.05600
C785        C  0.29095864  0.89311436  0.08352516    -0.32500
C786        C  0.33113153  0.91710793  0.09276395     0.36500
H787        H  0.30241199  0.89754722  0.16916327     0.16900
O788        O  0.22544356  0.85308812  0.15829255    -0.60000
H789        H  0.28767458  0.89143924  0.05948485     0.16900
O790        O  0.36574808  0.93788222  0.07116059    -0.60100
H791        H  0.37163016  0.91638915  0.05732378     0.43900
H792        H  0.21833994  0.87397301  0.17058691     0.43800
C793        C  0.13276392  0.86077756  0.10205573    -0.05200
C794        C  0.10547061  0.84926119  0.08178890    -0.32600
C795        C  0.08605434  0.87015624  0.09035791     0.36600
C796        C  0.09353612  0.90258172  0.11978215    -0.05600
C797        C  0.12072756  0.91376846  0.14001585    -0.32500
C798        C  0.14018348  0.89315837  0.13141708     0.36500
H799        H  0.09917244  0.82399765  0.05939468     0.16900
O800        O  0.05927387  0.85804855  0.07018095    -0.60000
H801        H  0.12683055  0.93853023  0.16274449     0.16900
O802        O  0.16584316  0.90435800  0.15225067    -0.60100
H803        H  0.14819300  0.88253380  0.16561699     0.43900
H804        H  0.03095163  0.83673364  0.07964977     0.43800
C805        C  0.06088895  0.64034641  0.36687166    -0.05200
C806        C  0.04708475  0.66692781  0.38131371    -0.32600
C807        C  0.06740293  0.70473297  0.37127635     0.36600
C808        C  0.10116102  0.71550496  0.34558690    -0.05600
C809        C  0.11235902  0.68664882  0.32938028    -0.32500
C810        C  0.09283705  0.64963743  0.34015003     0.36500
H811        H  0.02245704  0.65993649  0.40193441     0.16900
O812        O  0.05611812  0.73241002  0.38851358    -0.60000
H813        H  0.13803673  0.69416382  0.30958099     0.16900
O814        O  0.10656084  0.62378034  0.32549214    -0.60100
H815        H  0.08603545  0.59923622  0.31000899     0.43900
H816        H  0.07436519  0.75207955  0.40642610     0.43800
C817        C  0.32113804  0.89450274  0.37403689    -0.05200
C818        C  0.31701100  0.90650234  0.35033213    -0.32600
C819        C  0.27755371  0.88547839  0.34097012     0.36600
C820        C  0.24163384  0.85187550  0.35530323    -0.05600
C821        C  0.24575280  0.84109130  0.37970341    -0.32500
C822        C  0.28475945  0.86148865  0.38879386     0.36500
H823        H  0.34442808  0.93166795  0.33859957     0.16900
O824        O  0.27465028  0.89660272  0.31682234    -0.60000
H825        H  0.21837859  0.81649560  0.39197464     0.16900
O826        O  0.28659218  0.84952118  0.41294158    -0.60100
H827        H  0.28558673  0.82307372  0.40152868     0.43900
H828        H  0.27982256  0.92522490  0.32717682     0.43800
C829        C  0.12236523  0.85008122  0.35180723    -0.05200
C830        C  0.12584721  0.87741338  0.38330339    -0.32600
C831        C  0.10792506  0.89980270  0.39335083     0.36600
C832        C  0.08593384  0.89519518  0.37163880    -0.05600
C833        C  0.08281932  0.86798012  0.33983241    -0.32500
C834        C  0.10040364  0.84503455  0.33002970     0.36500
H835        H  0.14217598  0.88099131  0.40046071     0.16900
O836        O  0.11197086  0.92587448  0.42458809    -0.60000
H837        H  0.06597493  0.86373067  0.32275371     0.16900
O838        O  0.09674944  0.81853138  0.29901027    -0.60100
H839        H  0.06863454  0.79127850  0.30069241     0.43900
H840        H  0.13994971  0.95325884  0.42286393     0.43800
C841        C  0.41587548  0.58984859  0.22179647    -0.05200
C842        C  0.38547764  0.58360545  0.24953497    -0.32600
C843        C  0.36489744  0.60339529  0.25819755     0.36600
C844        C  0.37522872  0.63041193  0.23932894    -0.05600
C845        C  0.40667110  0.63769589  0.21237369    -0.32500
C846        C  0.42658378  0.61747385  0.20336215     0.36500
H847        H  0.37671066  0.56229722  0.26388214     0.16900
O848        O  0.33429524  0.59549808  0.28467330    -0.60000
H849        H  0.41484097  0.65794005  0.19726407     0.16900
O850        O  0.45687547  0.62535580  0.17661427    -0.60100
H851        H  0.44144788  0.60763342  0.15697553     0.43900
H852        H  0.34917629  0.61741796  0.30403355     0.43800
C853        C  0.37767136  0.74736982  0.22986083    -0.05200
C854        C  0.41155388  0.78538505  0.24610280    -0.32600
C855        C  0.43409682  0.82361541  0.23601207     0.36600
C856        C  0.42284966  0.82394134  0.20926950    -0.05600
C857        C  0.38999286  0.78557405  0.19240700    -0.32500
C858        C  0.36752204  0.74757667  0.20239772     0.36500
H859        H  0.42002780  0.78557366  0.26699169     0.16900
O860        O  0.46627765  0.86051244  0.25290261    -0.60000
H861        H  0.38150381  0.78492848  0.17128260     0.16900
O862        O  0.33685318  0.71034568  0.18424110    -0.60100
H863        H  0.31362945  0.71329091  0.18872966     0.43900
H864        H  0.45362417  0.87505583  0.26949854     0.43800
C865        C  0.16227463  0.56742806  0.22335946    -0.05200
C866        C  0.18451524  0.54901812  0.20893384    -0.32600
C867        C  0.22447302  0.57028382  0.21726520     0.36600
C868        C  0.24176872  0.60968756  0.24131233    -0.05600
C869        C  0.21749010  0.62575734  0.25764406    -0.32500
C870        C  0.17866725  0.60562803  0.24815058     0.36500
H871        H  0.17224704  0.51979008  0.18948325     0.16900
O872        O  0.24791998  0.55472986  0.19928804    -0.60000
H873        H  0.22992118  0.65569782  0.27636844     0.16900
O874        O  0.15732863  0.62408292  0.26265453    -0.60100
H875        H  0.16960265  0.64619747  0.25054261     0.43900
H876        H  0.23689386  0.53028834  0.20820627     0.43800
C877        C  0.40343703  0.57583125  0.47047274    -0.05200
C878        C  0.41327272  0.60138920  0.45065526    -0.32600
C879        C  0.39562139  0.62376218  0.45935671     0.36600
C880        C  0.36762122  0.62110665  0.48842254    -0.05600
C881        C  0.35718462  0.59529826  0.50828793    -0.32500
C882        C  0.37529384  0.57299856  0.49966438     0.36500
H883        H  0.43497379  0.60424257  0.42823937     0.16900
O884        O  0.40538993  0.64765919  0.43890026    -0.60000
H885        H  0.33503370  0.59245544  0.53038831     0.16900
O886        O  0.36387468  0.54711720  0.51900808    -0.60100
H887        H  0.38085188  0.56677864  0.53766504     0.43900
H888        H  0.38427265  0.62761499  0.42308996     0.43800
C889        C  0.42641009  0.83041709  0.47487633    -0.05200
C890        C  0.44232613  0.80572100  0.46146093    -0.32600
C891        C  0.42185517  0.76705325  0.47020722     0.36600
C892        C  0.38512237  0.75304048  0.49308865    -0.05600
C893        C  0.36894951  0.77781846  0.00693493    -0.32500
C894        C  0.39179982  0.81826246  0.49945176     0.36500
H895        H  0.46894077  0.81485597  0.44243736     0.16900
O896        O  0.43544442  0.74124186  0.45362625    -0.60000
H897        H  0.34095037  0.76761833  0.02459924     0.16900
O898        O  0.37415404  0.84101856  0.01299070    -0.60100
H899        H  0.38747089  0.85983619  0.03356302     0.43900
H900        H  0.46132665  0.75501523  0.46292817     0.43800
C901        C  0.16512101  0.57287655  0.46682184    -0.05200
C902        C  0.18794773  0.55524852  0.45117310    -0.32600
C903        C  0.22758020  0.57569855  0.45962548     0.36600
C904        C  0.24447995  0.61399613  0.48475968    -0.05600
C905        C  0.21763554  0.62745439  0.00177488    -0.32500
C906        C  0.18164029  0.61079175  0.49195565     0.36500
H907        H  0.17587413  0.52664319  0.43120984     0.16900
O908        O  0.25082155  0.55997598  0.44132068    -0.60000
H909        H  0.22929968  0.65577628  0.02202646     0.16900
O910        O  0.15576732  0.62414944  0.00960598    -0.60100
H911        H  0.16503012  0.64584578  0.99820069     0.43900
H912        H  0.23751102  0.53323404  0.44805268     0.43800
C913        C  0.34783355  0.64346818  0.49630296     0.03400
C914        C  0.30511165  0.61949210  0.49371068    -0.12800
C915        C  0.28822839  0.63933820  0.49189500     0.00900
C916        C  0.31454013  0.68367609  0.49372528    -0.11300
C917        C  0.35718726  0.70818874  0.49702852     0.03400
C918        C  0.37327922  0.68798338  0.49938286    -0.10700
H919        H  0.28576088  0.58511249  0.49124546     0.09000
H920        H  0.30236389  0.69862440  0.49021106     0.06500
H921        H  0.40626124  0.70618879  0.50131601     0.06300
C922        C  0.35278639  0.65000290  0.74693529     0.03400
C923        C  0.37603166  0.69221378  0.74362686    -0.12800
C924        C  0.35596910  0.70830281  0.74141801     0.00900
C925        C  0.31233902  0.68292788  0.74401686    -0.11300
C926        C  0.28808830  0.64088659  0.74826619     0.03400
C927        C  0.30873728  0.62487027  0.75039814    -0.10700
H928        H  0.40995420  0.71122353  0.73983616     0.09000
H929        H  0.29758757  0.69519369  0.74029457     0.06500
H930        H  0.29099922  0.59220574  0.75263490     0.06300
C931        C  0.14144060  0.82605026  0.84132474     0.03400
C932        C  0.18408791  0.84806101  0.84324061    -0.12800
C933        C  0.19952742  0.82610308  0.84329776     0.00900
C934        C  0.17193915  0.78155010  0.84057655    -0.11300
C935        C  0.12898299  0.75924656  0.83964696     0.03400
C936        C  0.11410130  0.78157857  0.83906543    -0.10700
H937        H  0.20436903  0.88278479  0.84752611     0.09000
H938        H  0.18343901  0.76486976  0.84212999     0.06500
H939        H  0.08085932  0.76515002  0.83946024     0.06300
C940        C  0.14921422  0.83753142  0.59673074     0.03400
C941        C  0.12358736  0.79381419  0.59670422    -0.12800
C942        C  0.14097392  0.77416543  0.59778450     0.00900
C943        C  0.18446355  0.79829011  0.59722589    -0.11300
C944        C  0.21018504  0.84214471  0.59764954     0.03400
C945        C  0.19255315  0.86147180  0.59670418    -0.10700
H946        H  0.08995918  0.77602192  0.59809334     0.09000
H947        H  0.19801374  0.78399120  0.59958413     0.06500
H948        H  0.21185225  0.89585685  0.59897482     0.06300
O949        O  0.05489020  0.92077743  0.85838383    -0.75000
O950        O  0.05639503  0.92851069  0.91191596    -0.53900
C951        C  0.06468151  0.91629543  0.88072465     0.78700
O952        O  0.06965708  0.60618293  0.89126562    -0.59600
O953        O  0.00407915  0.57236214  0.87910132    -0.54100
C954        C  0.04307522  0.60354800  0.87961248     0.70700
O955        O  0.12144792  0.57414501  0.94335854    -0.74200
O956        O  0.09408284  0.01205655  0.95819935    -0.54800
C957        C  0.12377945  0.55144164  0.95497889     0.76700
O958        O  0.00648208  0.96284496  0.81307216    -0.59300
O959        O  0.47136963  0.49341890  0.83477434    -0.52500
C960        C  0.49049128  0.97820687  0.80958105     0.73300
Zr961      Zr  0.01915305  0.94966517  0.85644445     2.54700
O962        O  0.08209223  0.97524407  0.81685247    -0.79900
O963        O  0.48327409  0.87788392  0.81833099    -0.93300
Zr964      Zr  0.07036509  0.56481006  0.91871236     2.64700
O965        O  0.13516442  0.59259131  0.88105387    -0.98300
O966        O  0.09694520  0.63445566  0.95769981    -0.80300
O967        O  0.06109353  0.99773466  0.90048874    -0.83700
O968        O  0.03019863  0.51726824  0.87415072    -2.18400
O969        O  0.36554829  0.89418094  0.89558400    -0.67100
O970        O  0.39205691  0.95386281  0.87940834    -0.51700
C971        C  0.36223970  0.91553150  0.88323373     0.71700
O972        O  0.48192532  0.50720646  0.52648865    -0.60000
O973        O  0.01916237  0.97980959  0.50536231    -0.52000
C974        C  0.49980572  0.99263010  0.52873805     0.73500
O975        O  0.43351720  0.54906503  0.98122231    -0.71400
O976        O  0.43189589  0.54106492  0.92756081    -0.50100
C977        C  0.42439669  0.55405764  0.95881092     0.74900
O978        O  0.41576391  0.86438955  0.95023565    -0.66700
O979        O  0.48162797  0.89489331  0.95950346    -0.53900
C980        C  0.44202575  0.86561453  0.96090668     0.73200
Zr981      Zr  0.41678304  0.90319867  0.91945881     2.77500
O982        O  0.35197372  0.87277195  0.95680197    -0.97500
O983        O  0.39089038  0.83321212  0.88095831    -0.78300
Zr984      Zr  0.46713522  0.51793096  0.98258042     2.70100
O985        O  0.40339485  0.99075289  0.52070824    -0.79500
O986        O  0.99905945  0.58679228  0.52341418    -0.98600
Zr987      Zr  0.02300888  0.96388092  0.94551303     2.21500
Zr988      Zr  0.46361585  0.50399399  0.89339383     2.11100
O989        O  0.42605509  0.97029648  0.93828916    -2.47300
O990        O  0.45708188  0.95016563  0.96405811    -0.79300
O991        O  0.45238103  0.93512439  0.87354595    -0.71500
O992        O  0.03441764  0.53245011  0.96434067    -2.32500
O993        O  0.48275745  0.91428358  0.90003825    -2.28700
O994        O  0.00385748  0.55274921  0.93789548    -0.73300
H995        H  0.04402718  0.53109020  0.85597723     0.78700
H996        H  0.05093361  0.55000440  0.98255556     0.79800
H997        H  0.39918073  0.96594814  0.94478625     0.82000
H998        H  0.47924105  0.88723530  0.89405416     0.79600
H999        H  0.12647630  0.65328117  0.94861173     0.42700
H1000       H  0.98288702  0.58003638  0.54495943     0.41600
H1001       H  0.38462796  0.96013956  0.50963775     0.41300
H1002       H  0.34143857  0.88986022  0.95996800     0.39200
H1003       H  0.39092399  0.83725963  0.86020005     0.42400
H1004       H  0.47271098  0.85757165  0.83161518     0.37200
H1005       H  0.10003098  0.00671037  0.82586822     0.43300
H1006       H  0.12626481  0.58305394  0.85919501     0.39700
H1007       H  0.33207700  0.84406110  0.94361960     0.44600
H1008       H  0.00573763  0.87822720  0.80256105     0.43300
H1009       H  0.14944339  0.62408786  0.88723297     0.43500
H1010       H  0.52553724  0.59406643  0.52725900     0.43800
O1011       O  0.06195431  0.92964595  0.60817926    -0.75000
O1012       O  0.05784372  0.93146730  0.66154974    -0.53900
C1013       C  0.06840306  0.92183031  0.63044174     0.78700
O1014       O  0.08268519  0.61899541  0.64956680    -0.59600
O1015       O  0.01929665  0.58773596  0.63452090    -0.52700
C1016       C  0.05802999  0.61845706  0.63726122     0.70700
O1017       O  0.12489760  0.57768710  0.70219187    -0.74200
O1018       O  0.09391632  0.01143670  0.71269977    -0.54800
C1019       C  0.12523719  0.55306806  0.71319389     0.76700
O1020       O  0.01832552  0.97770045  0.56462154    -0.59300
O1021       O  0.48485804  0.50892220  0.58642101    -0.52500
C1022       C  0.50064529  0.99298417  0.56181374     0.73300
Zr1023     Zr  0.03023823  0.96286956  0.60703141     2.54700
O1024       O  0.09492163  0.99049522  0.56928247    -0.79900
O1025       O  0.49811978  0.89475886  0.56521899    -0.93300
Zr1026     Zr  0.07873631  0.57253862  0.67464141     2.64700
O1027       O  0.14411666  0.59781340  0.63772682    -0.98300
O1028       O  0.10879971  0.64233820  0.71380431    -0.80300
O1029       O  0.06791766  0.00495902  0.65374194    -0.83700
O1030       O  0.04220862  0.52988147  0.62758066    -2.18400
O1031       O  0.37609253  0.91046437  0.64250003    -0.67100
O1032       O  0.40553990  0.97338826  0.62982652    -0.51700
C1033       C  0.37476699  0.93472955  0.63207778     0.71700
O1034       O  0.47736463  0.50123910  0.77599696    -0.60000
O1035       O  0.01209922  0.97053074  0.75393845    -0.52000
C1036       C  0.49350302  0.98228411  0.77696012     0.73500
O1037       O  0.44167287  0.55826949  0.73336591    -0.71400
O1038       O  0.44612672  0.55650578  0.67993567    -0.50100
C1039       C  0.43611800  0.56692545  0.71106817     0.74900
O1040       O  0.41936437  0.86266706  0.68526639    -0.66700
O1041       O  0.48027801  0.89507590  0.70492474    -0.53900
C1042       C  0.44259875  0.86312938  0.69910072     0.73200
Zr1043     Zr  0.42377144  0.91193197  0.66419599     2.77500
O1044       O  0.35665481  0.87685865  0.69816370    -0.97500
O1045       O  0.39838526  0.84669045  0.62000800    -0.78300
Zr1046     Zr  0.47247342  0.52392867  0.73456725     2.70100
O1047       O  0.40569784  0.99547097  0.77103198    -0.79500
O1048       O  0.00730722  0.59066709  0.77415101    -0.98600
Zr1049     Zr  0.02454250  0.96631953  0.69577418     2.21500
Zr1050     Zr  0.47690564  0.51897041  0.64531072     2.11100
O1051       O  0.43354979  0.97929253  0.68730606    -2.47300
O1052       O  0.45904376  0.95298389  0.71185560    -0.79300
O1053       O  0.46385223  0.94982465  0.62193416    -0.71500
O1054       O  0.03817654  0.53575355  0.71786253    -2.32500
O1055       O  0.48980821  0.92329227  0.64725782    -2.28700
O1056       O  0.01248886  0.56139126  0.69209769    -0.73300
H1057       H  0.05720139  0.54504561  0.61014318     0.78700
H1058       H  0.05297011  0.55101933  0.73697161     0.79800
H1059       H  0.40686293  0.97524901  0.69322131     0.82000
H1060       H  0.48618337  0.89607024  0.63965151     0.79600
H1061       H  0.09823059  0.63562561  0.73576805     0.42700
H1062       H  0.98717578  0.58636999  0.79451198     0.41600
H1063       H  0.38652126  0.96493718  0.75998867     0.41300
H1064       H  0.34831145  0.89673512  0.70531079     0.39200
H1065       H  0.41991350  0.84110910  0.61423327     0.42400
H1066       H  0.51366609  0.90213597  0.54371864     0.37200
H1067       H  0.10801588  0.02164285  0.57411226     0.43300
H1068       H  0.13558556  0.58555563  0.61533204     0.39700
H1069       H  0.33688613  0.85188728  0.68240044     0.44600
H1070       H  0.97015396  0.88831955  0.56485748     0.43300
H1071       H  0.15792180  0.62899966  0.64164528     0.43500
H1072       H  0.52743258  0.59061074  0.78333555     0.43800
C1073       C  0.07576864  0.65563369  0.62485022    -0.05200
C1074       C  0.06283086  0.68283890  0.64110617    -0.32600
C1075       C  0.08204545  0.72052838  0.63133476     0.36600
C1076       C  0.11429379  0.73089645  0.60453644    -0.05600
C1077       C  0.12514959  0.70195165  0.58706315    -0.32500
C1078       C  0.10648107  0.66481435  0.59731329     0.36500
H1079       H  0.03921194  0.67591462  0.66241575     0.16900
O1080       O  0.07172610  0.74872689  0.64994867    -0.60000
H1081       H  0.14951740  0.70915056  0.56625627     0.16900
O1082       O  0.11853581  0.63773253  0.58040333    -0.60100
H1083       H  0.14346484  0.64966896  0.59017269     0.43900
H1084       H  0.04415035  0.73581136  0.64395578     0.43800
C1085       C  0.33374344  0.91610115  0.62380073    -0.05200
C1086       C  0.29835177  0.89236586  0.64484250    -0.32600
C1087       C  0.25833531  0.86929783  0.63665938     0.36600
C1088       C  0.25290748  0.86904937  0.60669907    -0.05600
C1089       C  0.28810700  0.89447530  0.58618668    -0.32500
C1090       C  0.32861805  0.91794149  0.59458434     0.36500
H1091       H  0.30177565  0.89115194  0.66766178     0.16900
O1092       O  0.22454097  0.84641756  0.65795816    -0.60000
H1093       H  0.28419905  0.89501100  0.56329532     0.16900
O1094       O  0.36276528  0.94096288  0.57360145    -0.60100
H1095       H  0.36931600  0.92050339  0.55811325     0.43900
H1096       H  0.21680024  0.86628349  0.67247669     0.43800
C1097       C  0.12985952  0.86003581  0.60413221    -0.05200
C1098       C  0.10793284  0.85249313  0.58108223    -0.32600
C1099       C  0.08811066  0.87283836  0.58888389     0.36600
C1100       C  0.08993883  0.90074967  0.62024634    -0.05600
C1101       C  0.11193716  0.90789719  0.64314911    -0.32500
C1102       C  0.13160858  0.88771289  0.63534745     0.36500
H1103       H  0.10608595  0.83071447  0.55714154     0.16900
O1104       O  0.06662769  0.86468519  0.56594575    -0.60000
H1105       H  0.11388870  0.92921474  0.66737036     0.16900
O1106       O  0.15204492  0.89475361  0.65860273    -0.60100
H1107       H  0.13104562  0.87130590  0.67030971     0.43900
H1108       H  0.03745479  0.84015919  0.57070563     0.43800
C1109       C  0.05905287  0.63894219  0.86545786    -0.05200
C1110       C  0.04662459  0.66666055  0.88125914    -0.32600
C1111       C  0.06725922  0.70487595  0.87165496     0.36600
C1112       C  0.09997983  0.71501382  0.84515172    -0.05600
C1113       C  0.10955304  0.68503718  0.82759477    -0.32500
C1114       C  0.08950853  0.64739343  0.83771287     0.36500
H1115       H  0.02293727  0.66018669  0.90254380     0.16900
O1116       O  0.05743414  0.73351319  0.89002716    -0.60000
H1117       H  0.13430257  0.69200093  0.80707164     0.16900
O1118       O  0.10128754  0.62001222  0.82134493    -0.60100
H1119       H  0.08301320  0.59954578  0.80352403     0.43900
H1120       H  0.07674935  0.75270543  0.90722206     0.43800
C1121       C  0.32079132  0.89402838  0.87327406    -0.05200
C1122       C  0.31747048  0.90391422  0.84766166    -0.32600
C1123       C  0.27829115  0.88232442  0.83746809     0.36600
C1124       C  0.24182655  0.85021413  0.85284781    -0.05600
C1125       C  0.24519866  0.84140398  0.87896650    -0.32500
C1126       C  0.28393574  0.86263164  0.88907429     0.36500
H1127       H  0.34531913  0.92780110  0.83509534     0.16900
O1128       O  0.27616261  0.89147264  0.81163054    -0.60000
H1129       H  0.21740659  0.81800971  0.89196861     0.16900
O1130       O  0.28510317  0.85346314  0.91536729    -0.60100
H1131       H  0.28148202  0.82548724  0.90643429     0.43900
H1132       H  0.28065575  0.91985859  0.82066033     0.43800
C1133       C  0.12403343  0.85085598  0.84969236    -0.05200
C1134       C  0.12622385  0.87696965  0.88158262    -0.32600
C1135       C  0.10758931  0.89875978  0.89188924     0.36600
C1136       C  0.08647887  0.89506294  0.86990571    -0.05600
C1137       C  0.08532690  0.86963117  0.83752100    -0.32500
C1138       C  0.10342527  0.84713559  0.82752620     0.36500
H1139       H  0.14164591  0.87962529  0.89896373     0.16900
O1140       O  0.10946288  0.92273933  0.92379315    -0.60000
H1141       H  0.06940696  0.86619728  0.82012641     0.16900
O1142       O  0.10129062  0.82210104  0.79602634    -0.60100
H1143       H  0.07416075  0.79376875  0.79704908     0.43900
H1144       H  0.13849388  0.94918027  0.92424475     0.43800
C1145       C  0.41643480  0.59012537  0.72151410    -0.05200
C1146       C  0.38988272  0.58800609  0.75148655    -0.32600
C1147       C  0.36902861  0.60760525  0.76048446     0.36600
C1148       C  0.37492771  0.62999401  0.73956303    -0.05600
C1149       C  0.40209421  0.63288268  0.71009622    -0.32500
C1150       C  0.42265642  0.61329338  0.70095170     0.36500
H1151       H  0.38456764  0.57037958  0.76764457     0.16900
O1152       O  0.34291185  0.60454859  0.78959108    -0.60000
H1153       H  0.40690795  0.64990368  0.69363121     0.16900
O1154       O  0.44956844  0.61796130  0.67216023    -0.60100
H1155       H  0.43142476  0.59727414  0.65424682     0.43900
H1156       H  0.36063322  0.63058733  0.80605557     0.43800
C1157       C  0.38045397  0.74813019  0.73019713    -0.05200
C1158       C  0.40542152  0.78811865  0.75119609    -0.32600
C1159       C  0.42709393  0.82603677  0.74088671     0.36600
C1160       C  0.42384460  0.82395976  0.70929569    -0.05600
C1161       C  0.39985097  0.78381206  0.68802352    -0.32500
C1162       C  0.37849899  0.74602719  0.69819940     0.36500
H1163       H  0.40729100  0.78991722  0.77578847     0.16900
O1164       O  0.45013941  0.86494516  0.76219312    -0.60000
H1165       H  0.39754914  0.78177877  0.66348988     0.16900
O1166       O  0.35651402  0.70705575  0.67652675    -0.60100
H1167       H  0.32933820  0.70170124  0.67737459     0.43900
H1168       H  0.43066097  0.87330548  0.77412230     0.43800
C1169       C  0.16313289  0.57196851  0.72707289    -0.05200
C1170       C  0.18251531  0.55068945  0.71644591    -0.32600
C1171       C  0.22218489  0.57125189  0.72499820     0.36600
C1172       C  0.24233082  0.61329164  0.74558043    -0.05600
C1173       C  0.22037263  0.63223344  0.75905104    -0.32500
C1174       C  0.18197421  0.61269929  0.74899911     0.36500
H1175       H  0.16832497  0.51931841  0.69943617     0.16900
O1176       O  0.24252013  0.55174497  0.71026495    -0.60000
H1177       H  0.23449355  0.66391261  0.77560805     0.16900
O1178       O  0.16356874  0.63415041  0.76011350    -0.60100
H1179       H  0.17830372  0.65491504  0.74610890     0.43900
H1180       H  0.22904452  0.52881689  0.72186855     0.43800
C1181       C  0.40437694  0.57686327  0.96926543    -0.05200
C1182       C  0.41048961  0.59866150  0.94778341    -0.32600
C1183       C  0.39141568  0.61960518  0.95601400     0.36600
C1184       C  0.36598039  0.61951418  0.98630217    -0.05600
C1185       C  0.35942253  0.59772580  0.00790964    -0.32500
C1186       C  0.37876457  0.57673582  0.99971494     0.36500
H1187       H  0.43015328  0.59948106  0.92436774     0.16900
O1188       O  0.39746283  0.63981437  0.93407656    -0.60000
H1189       H  0.33941844  0.59709112  0.03110040     0.16900
O1190       O  0.37094564  0.55469170  0.02090910    -0.60100
H1191       H  0.39042924  0.57667765  0.03772850     0.43900
H1192       H  0.37368847  0.61817578  0.92074889     0.43800
C1193       C  0.42499585  0.82973802  0.97476366    -0.05200
C1194       C  0.44083505  0.80497877  0.96101962    -0.32600
C1195       C  0.41975488  0.76559099  0.96877932     0.36600
C1196       C  0.38255916  0.75096023  0.99115445    -0.05600
C1197       C  0.37163561  0.78002373  0.50859775    -0.32500
C1198       C  0.38969031  0.81676131  0.99868040     0.36500
H1199       H  0.46785816  0.81462910  0.94236831     0.16900
O1200       O  0.43335613  0.73985428  0.95174095    -0.60000
H1201       H  0.34398038  0.77026483  0.52661504     0.16900
O1202       O  0.37627492  0.84254494  0.51355053    -0.60100
H1203       H  0.39421963  0.86591140  0.53102459     0.43900
H1204       H  0.45864032  0.75279763  0.96151668     0.43800
C1205       C  0.16335811  0.57133982  0.96619211    -0.05200
C1206       C  0.18678595  0.55458878  0.94947633    -0.32600
C1207       C  0.22622632  0.57482990  0.95801218     0.36600
C1208       C  0.24216505  0.61186223  0.98423704    -0.05600
C1209       C  0.22063682  0.63060651  0.50116677    -0.32500
C1210       C  0.17871002  0.60778075  0.99258535     0.36500
H1211       H  0.17535123  0.52697904  0.92867752     0.16900
O1212       O  0.25037182  0.56050363  0.93873032    -0.60000
H1213       H  0.23279544  0.65976715  0.52066791     0.16900
O1214       O  0.15967020  0.62843454  0.50786548    -0.60100
H1215       H  0.17168823  0.65158148  0.49695475     0.43900
H1216       H  0.23799979  0.53350113  0.94461925     0.43800
C1217       C  0.84730890  0.14476198  0.99773204     0.03400
C1218       C  0.80422675  0.12069093  0.99632035    -0.12800
C1219       C  0.78678656  0.14006272  0.99447063     0.00900
C1220       C  0.81299897  0.18416660  0.99533663    -0.11300
C1221       C  0.85595623  0.20879350  0.99770683     0.03400
C1222       C  0.87258890  0.18896197  0.99979856    -0.10700
H1223       H  0.78500979  0.08649433  0.99461372     0.09000
H1224       H  0.80047743  0.19878425  0.99181714     0.06500
H1225       H  0.90578713  0.20719779  0.00090166     0.06300
C1226       C  0.85380361  0.14977964  0.24695233     0.03400
C1227       C  0.87640455  0.19172721  0.24317772    -0.12800
C1228       C  0.85556443  0.20718507  0.24112533     0.00900
C1229       C  0.81182035  0.18138257  0.24458560    -0.11300
C1230       C  0.78842563  0.13927166  0.24828233     0.03400
C1231       C  0.80975030  0.12391102  0.25018489    -0.10700
H1232       H  0.91032490  0.21099601  0.23908731     0.09000
H1233       H  0.79614464  0.19328056  0.24187018     0.06500
H1234       H  0.79246083  0.09115204  0.25206801     0.06300
C1235       C  0.64182266  0.32542288  0.33946620     0.03400
C1236       C  0.68451570  0.34806017  0.34181340    -0.12800
C1237       C  0.70047352  0.32672699  0.34214766     0.00900
C1238       C  0.67326133  0.28215347  0.33942827    -0.11300
C1239       C  0.63024655  0.25911478  0.33812242     0.03400
C1240       C  0.61499973  0.28084146  0.33688427    -0.10700
H1241       H  0.70437836  0.38278780  0.34620997     0.09000
H1242       H  0.68517639  0.26598510  0.34119638     0.06500
H1243       H  0.58182706  0.26391156  0.33657022     0.06300
C1244       C  0.64664752  0.33467056  0.09512294     0.03400
C1245       C  0.62369595  0.29045971  0.09272973    -0.12800
C1246       C  0.64280997  0.27330498  0.09536627     0.00900
C1247       C  0.68586975  0.30031330  0.09769542    -0.11300
C1248       C  0.70922927  0.34413542  0.09905769     0.03400
C1249       C  0.68974149  0.36121122  0.09734598    -0.10700
H1250       H  0.59041784  0.27013227  0.09105272     0.09000
H1251       H  0.70078981  0.28813977  0.10130694     0.06500
H1252       H  0.70722392  0.39563781  0.10080626     0.06300
O1253       O  0.55784904  0.42299483  0.35655055    -0.75000
O1254       O  0.55949643  0.43056589  0.41003789    -0.53900
C1255       C  0.56735913  0.41806383  0.37875208     0.78700
O1256       O  0.57076038  0.10654589  0.39181472    -0.59600
O1257       O  0.50546480  0.07288680  0.37919885    -0.54100
C1258       C  0.54451001  0.10406198  0.37987486     0.70700
O1259       O  0.62208805  0.07478657  0.44438666    -0.74200
O1260       O  0.59781852  0.51467690  0.45710835    -0.54800
C1261       C  0.62523591  0.05180088  0.45491094     0.76700
O1262       O  0.50986257  0.46611460  0.31270834    -0.59300
O1263       O  0.97405108  0.99593950  0.33560496    -0.52500
C1264       C  0.98955091  0.47963099  0.31096514     0.73300
Zr1265     Zr  0.52314973  0.45346453  0.35598213     2.54700
O1266       O  0.58822004  0.48219465  0.31884893    -0.79900
O1267       O  0.98671260  0.38006873  0.31926396    -0.93300
Zr1268     Zr  0.57086636  0.06515842  0.41958860     2.64700
O1269       O  0.63684930  0.09541710  0.38363581    -0.98300
O1270       O  0.59571760  0.13440936  0.45897387    -0.80300
O1271       O  0.56422418  0.50102686  0.40054316    -0.83700
O1272       O  0.53133759  0.01770804  0.37450606    -2.18400
O1273       O  0.86651133  0.39500392  0.39503758    -0.67100
O1274       O  0.89282501  0.45467294  0.37900490    -0.51700
C1275       C  0.86320961  0.41616246  0.38244796     0.71700
O1276       O  0.97985025  0.00486104  0.02679003    -0.60000
O1277       O  0.51667770  0.47593591  0.00400592    -0.52000
C1278       C  0.99906224  0.49163903  0.02852739     0.73500
O1279       O  0.93478048  0.05152161  0.48220413    -0.71400
O1280       O  0.93273171  0.04313534  0.42859589    -0.50100
C1281       C  0.92508214  0.05600241  0.45985929     0.74900
O1282       O  0.91535968  0.36526894  0.45109655    -0.66700
O1283       O  0.98129892  0.39650305  0.46073133    -0.53900
C1284       C  0.94174080  0.36695137  0.46204043     0.73200
Zr1285     Zr  0.91717679  0.40391921  0.41957449     2.77500
O1286       O  0.85071197  0.37045168  0.45465061    -0.97500
O1287       O  0.89522085  0.33575726  0.37925894    -0.78300
Zr1288     Zr  0.96917678  0.02147133  0.48391822     2.70100
O1289       O  0.90204547  0.48978955  0.01959868    -0.79500
O1290       O  0.50356155  0.08901910  0.01922799    -0.98600
Zr1291     Zr  0.52632925  0.46614114  0.44487447     2.21500
Zr1292     Zr  0.96558792  0.00712074  0.39450623     2.11100
O1293       O  0.92552841  0.47060436  0.43901837    -2.47300
O1294       O  0.95673603  0.45051339  0.46464545    -0.79300
O1295       O  0.95312110  0.43693875  0.37431626    -0.71500
O1296       O  0.53490010  0.03210958  0.46477355    -2.32500
O1297       O  0.98355613  0.41600305  0.40066040    -2.28700
O1298       O  0.50425036  0.05282359  0.43813429    -0.73300
H1299       H  0.54518507  0.03152932  0.35633235     0.78700
H1300       H  0.55133333  0.04946033  0.48302910     0.79800
H1301       H  0.89847747  0.46585506  0.44532621     0.82000
H1302       H  0.98032672  0.38909447  0.39461197     0.79600
H1303       H  0.58759958  0.12805976  0.48083229     0.42700
H1304       H  0.51013099  0.10856275  0.00687958     0.41600
H1305       H  0.88601788  0.45831535  0.01044463     0.41300
H1306       H  0.84049800  0.38813473  0.45886714     0.39200
H1307       H  0.89738652  0.34112852  0.35837957     0.42400
H1308       H  0.97587065  0.36004144  0.33291155     0.37200
H1309       H  0.60995198  0.50628204  0.33350129     0.43300
H1310       H  0.62896461  0.08788922  0.36179682     0.39700
H1311       H  0.83142749  0.34278412  0.44016823     0.44600
H1312       H  0.51119273  0.38198710  0.30256237     0.43300
H1313       H  0.65101673  0.12688597  0.39136892     0.43500
H1314       H  0.02414416  0.09130352  0.02843662     0.43800
O1315       O  0.56434607  0.43203339  0.10726951    -0.75000
O1316       O  0.55958314  0.43289780  0.16055196    -0.53900
C1317       C  0.57004236  0.42335959  0.12936568     0.78700
O1318       O  0.58716637  0.11935579  0.14877426    -0.59600
O1319       O  0.52400926  0.08931830  0.13396724    -0.52700
C1320       C  0.56302362  0.11927143  0.13625020     0.70700
O1321       O  0.62625356  0.07567129  0.20188321    -0.74200
O1322       O  0.59685463  0.51439552  0.21101752    -0.54800
C1323       C  0.62589140  0.05050594  0.21277931     0.76700
O1324       O  0.51798889  0.47638573  0.06363601    -0.59300
O1325       O  0.98386292  0.00738189  0.08690394    -0.52500
C1326       C  0.99944028  0.49140537  0.06164134     0.73300
Zr1327     Zr  0.53191117  0.46459582  0.10673663     2.54700
O1328       O  0.59900893  0.49824404  0.07238540    -0.79900
O1329       O  0.99475981  0.39142456  0.06774967    -0.93300
Zr1330     Zr  0.58095234  0.07266966  0.17504598     2.64700
O1331       O  0.64835427  0.10056246  0.14083539    -0.98300
O1332       O  0.60869667  0.14168260  0.21517074    -0.80300
O1333       O  0.56934053  0.50728304  0.15350810    -0.83700
O1334       O  0.54443637  0.03091088  0.12787314    -2.18400
O1335       O  0.87284729  0.41137259  0.14565365    -0.67100
O1336       O  0.90428626  0.47320993  0.13036503    -0.51700
C1337       C  0.87256389  0.43546336  0.13410836     0.71700
O1338       O  0.97824532  0.00138514  0.27656143    -0.60000
O1339       O  0.51460009  0.47297829  0.25363995    -0.52000
C1340       C  0.99217625  0.48347890  0.27830706     0.73500
O1341       O  0.94228590  0.05782488  0.23414760    -0.71400
O1342       O  0.94380966  0.05315830  0.18059382    -0.50100
C1343       C  0.93542063  0.06517389  0.21178935     0.74900
O1344       O  0.91714083  0.36324776  0.18681794    -0.66700
O1345       O  0.97816349  0.39492752  0.20578880    -0.53900
C1346       C  0.94040788  0.36318092  0.20019721     0.73200
Zr1347     Zr  0.92125730  0.41278280  0.16632278     2.77500
O1348       O  0.85587165  0.38187358  0.20294863    -0.97500
O1349       O  0.89228291  0.34649958  0.12330690    -0.78300
Zr1350     Zr  0.97251564  0.02278091  0.23487598     2.70100
O1351       O  0.90561413  0.49811636  0.27167442    -0.79500
O1352       O  0.51359581  0.09168552  0.27395601    -0.98600
Zr1353     Zr  0.52681712  0.46839088  0.19545443     2.21500
Zr1354     Zr  0.97619191  0.01732336  0.14577606     2.11100
O1355       O  0.93290518  0.48097300  0.18843698    -2.47300
O1356       O  0.95723034  0.45419622  0.21360667    -0.79300
O1357       O  0.96151539  0.44889549  0.12293488    -0.71500
O1358       O  0.54023094  0.03560619  0.21806058    -2.32500
O1359       O  0.98665390  0.42251791  0.14881441    -2.28700
O1360       O  0.51522683  0.06265600  0.19225454    -0.73300
H1361       H  0.55966085  0.04603675  0.11041168     0.78700
H1362       H  0.55493730  0.05049365  0.23724009     0.79800
H1363       H  0.90658066  0.47767911  0.19443583     0.82000
H1364       H  0.98258541  0.39508894  0.14147844     0.79600
H1365       H  0.60290574  0.13501225  0.23646080     0.42700
H1366       H  0.51729834  0.11339460  0.26597437     0.41600
H1367       H  0.88417754  0.47155997  0.25787003     0.41300
H1368       H  0.84904737  0.40298961  0.21018287     0.39200
H1369       H  0.89317181  0.35460453  0.10444164     0.42400
H1370       H  0.01413452  0.39642859  0.04699911     0.37200
H1371       H  0.60112398  0.52019273  0.06606760     0.43300
H1372       H  0.64133591  0.08824252  0.11791812     0.39700
H1373       H  0.83462282  0.35694258  0.18821918     0.44600
H1374       H  0.52560839  0.39923355  0.04911054     0.43300
H1375       H  0.66128976  0.13156790  0.14482313     0.43500
H1376       H  0.02242093  0.08702464  0.28740877     0.43800
C1377       C  0.58133735  0.15618545  0.12333140    -0.05200
C1378       C  0.56411661  0.17955781  0.13594792    -0.32600
C1379       C  0.58212763  0.21632047  0.12550885     0.36600
C1380       C  0.61776375  0.22987116  0.10157823    -0.05600
C1381       C  0.63325541  0.20454677  0.08744436    -0.32500
C1382       C  0.61562688  0.16825010  0.09851671     0.36500
H1383       H  0.53775434  0.17042955  0.15514681     0.16900
O1384       O  0.56687486  0.24070966  0.14109084    -0.60000
H1385       H  0.66019515  0.21395561  0.06873069     0.16900
O1386       O  0.63178029  0.14454192  0.08478484    -0.60100
H1387       H  0.65486066  0.15849632  0.09769866     0.43900
H1388       H  0.54019050  0.22469233  0.13210777     0.43800
C1389       C  0.83190772  0.41795490  0.12593329    -0.05200
C1390       C  0.79642063  0.39804420  0.14842134    -0.32600
C1391       C  0.75650148  0.37588443  0.14029669     0.36600
C1392       C  0.75149143  0.37273124  0.10904677    -0.05600
C1393       C  0.78684748  0.39439456  0.08703818    -0.32500
C1394       C  0.82713761  0.41691972  0.09532067     0.36500
H1395       H  0.79967820  0.39885504  0.17216526     0.16900
O1396       O  0.72237200  0.35592256  0.16257783    -0.60000
H1397       H  0.78313944  0.39215661  0.06295887     0.16900
O1398       O  0.86133080  0.43563170  0.07274935    -0.60100
H1399       H  0.86624353  0.41322151  0.05983675     0.43900
H1400       H  0.71464318  0.37638654  0.17425241     0.43800
C1401       C  0.62466887  0.35452630  0.10159978    -0.05200
C1402       C  0.63785051  0.38303976  0.08314411    -0.32600
C1403       C  0.61969565  0.40510590  0.09121189     0.36600
C1404       C  0.58866639  0.39940812  0.11855335    -0.05600
C1405       C  0.57548629  0.37073226  0.13677569    -0.32500
C1406       C  0.59302584  0.34828997  0.12847261     0.36500
H1407       H  0.66267151  0.38863486  0.06277231     0.16900
O1408       O  0.63422673  0.43397443  0.07354656    -0.60000
H1409       H  0.55158939  0.36585713  0.15784975     0.16900
O1410       O  0.58101323  0.32253586  0.14816325    -0.60100
H1411       H  0.55211948  0.29729438  0.14366786     0.43900
H1412       H  0.61991635  0.41639452  0.05335236     0.43800
C1413       C  0.56116766  0.13945824  0.36529836    -0.05200
C1414       C  0.54653661  0.16536262  0.37876448    -0.32600
C1415       C  0.56684252  0.20313894  0.36855021     0.36600
C1416       C  0.60168987  0.21477937  0.34374351    -0.05600
C1417       C  0.61361530  0.18641424  0.32836694    -0.32500
C1418       C  0.59402602  0.14942822  0.33925264     0.36500
H1419       H  0.52106519  0.15780245  0.39873884     0.16900
O1420       O  0.55409538  0.22973606  0.38464158    -0.60000
H1421       H  0.63982512  0.19422012  0.30902931     0.16900
O1422       O  0.60847389  0.12418258  0.32528864    -0.60100
H1423       H  0.58838263  0.09927544  0.30963861     0.43900
H1424       H  0.57122609  0.24981910  0.40320887     0.43800
C1425       C  0.82191411  0.39435987  0.37199318    -0.05200
C1426       C  0.81845838  0.40583472  0.34749481    -0.32600
C1427       C  0.77925637  0.38457639  0.33740705     0.36600
C1428       C  0.74288518  0.35123958  0.35182109    -0.05600
C1429       C  0.74648402  0.34097000  0.37687413    -0.32500
C1430       C  0.78517743  0.36157729  0.38666616     0.36500
H1431       H  0.84619431  0.43082362  0.33578038     0.16900
O1432       O  0.77707373  0.39534902  0.31263259    -0.60000
H1433       H  0.71886436  0.31672282  0.38929216     0.16900
O1434       O  0.78630765  0.35029657  0.41163366    -0.60100
H1435       H  0.78347143  0.32277796  0.40119320     0.43900
H1436       H  0.78149520  0.42365413  0.32272959     0.43800
C1437       C  0.62389666  0.34980609  0.34781142    -0.05200
C1438       C  0.62818605  0.37785293  0.37904532    -0.32600
C1439       C  0.61082834  0.40080765  0.38903175     0.36600
C1440       C  0.58811693  0.39575059  0.36771626    -0.05600
C1441       C  0.58433015  0.36797038  0.33605162    -0.32500
C1442       C  0.60174487  0.34476366  0.32616728     0.36500
H1443       H  0.64487091  0.38170161  0.39605124     0.16900
O1444       O  0.61627045  0.42805461  0.41982974    -0.60000
H1445       H  0.56714201  0.36352544  0.31915806     0.16900
O1446       O  0.59782248  0.31810654  0.29518958    -0.60100
H1447       H  0.56950485  0.29108661  0.29690726     0.43900
H1448       H  0.64515695  0.45421323  0.41757250     0.43800
C1449       C  0.91651859  0.08912571  0.22220992    -0.05200
C1450       C  0.89164338  0.08913757  0.25287668    -0.32600
C1451       C  0.87149389  0.10946372  0.26182269     0.36600
C1452       C  0.87640540  0.13038857  0.24011324    -0.05600
C1453       C  0.90233949  0.13162145  0.21013201    -0.32500
C1454       C  0.92218051  0.11129436  0.20103874     0.36500
H1455       H  0.88701231  0.07255269  0.26960308     0.16900
O1456       O  0.84690981  0.10842272  0.29160502    -0.60000
H1457       H  0.90650841  0.14766890  0.19316125     0.16900
O1458       O  0.94778943  0.11416502  0.17161168    -0.60100
H1459       H  0.92867825  0.09287056  0.15439306     0.43900
H1460       H  0.86548010  0.13551181  0.30697888     0.43800
C1461       C  0.87909931  0.24719148  0.23010481    -0.05200
C1462       C  0.91086790  0.28622245  0.24760011    -0.32600
C1463       C  0.93223269  0.32431149  0.23758925     0.36600
C1464       C  0.92168091  0.32351756  0.20983656    -0.05600
C1465       C  0.89101486  0.28415421  0.19176224    -0.32500
C1466       C  0.87000666  0.24622282  0.20153480     0.36500
H1467       H  0.91852862  0.28726017  0.26936425     0.16900
O1468       O  0.96261907  0.36213433  0.25547522    -0.60000
H1469       H  0.88324764  0.28269186  0.16985235     0.16900
O1470       O  0.84173060  0.20798426  0.18228993    -0.60100
H1471       H  0.81683564  0.20804917  0.18598834     0.43900
H1472       H  0.94794827  0.37456659  0.27197935     0.43800
C1473       C  0.66346197  0.06880558  0.22672633    -0.05200
C1474       C  0.68428643  0.04887913  0.21447384    -0.32600
C1475       C  0.72411213  0.06995382  0.22300520     0.36600
C1476       C  0.74279442  0.11089650  0.24520018    -0.05600
C1477       C  0.71954420  0.12834834  0.25997895    -0.32500
C1478       C  0.68092154  0.10835451  0.25010457     0.36500
H1479       H  0.67119027  0.01850776  0.19623343     0.16900
O1480       O  0.74618098  0.05248994  0.20666372    -0.60000
H1481       H  0.73277169  0.15929677  0.27752649     0.16900
O1482       O  0.66086912  0.12821806  0.26279993    -0.60100
H1483       H  0.67586100  0.15126422  0.25094323     0.43900
H1484       H  0.73360217  0.02840826  0.21666950     0.43800
C1485       C  0.90412342  0.07798865  0.47054068    -0.05200
C1486       C  0.90529969  0.09529023  0.44788066    -0.32600
C1487       C  0.88656985  0.11673825  0.45687971     0.36600
C1488       C  0.86626579  0.12149439  0.48899026    -0.05600
C1489       C  0.86404373  0.10367700  0.51166769    -0.32500
C1490       C  0.88310175  0.08226526  0.50275067     0.36500
H1491       H  0.92114995  0.09260432  0.42304293     0.16900
O1492       O  0.88834001  0.13319059  0.43408270    -0.60000
H1493       H  0.84777247  0.10659585  0.53628950     0.16900
O1494       O  0.87981225  0.06454774  0.52532867    -0.60100
H1495       H  0.90246821  0.08844604  0.53928150     0.43900
H1496       H  0.86318346  0.10963261  0.42253727     0.43800
C1497       C  0.92506687  0.33131537  0.47608568    -0.05200
C1498       C  0.94002828  0.30577116  0.46155762    -0.32600
C1499       C  0.91932250  0.26677822  0.46985157     0.36600
C1500       C  0.88338686  0.25329142  0.49352913    -0.05600
C1501       C  0.87057819  0.28081181  0.00968082    -0.32500
C1502       C  0.89109077  0.31951088  0.50120643     0.36500
H1503       H  0.96603515  0.31454306  0.44200708     0.16900
O1504       O  0.93182198  0.24020289  0.45214341    -0.60000
H1505       H  0.84313893  0.27112844  0.02791493     0.16900
O1506       O  0.87655024  0.34458084  0.01619386    -0.60100
H1507       H  0.89368248  0.36611315  0.03454767     0.43900
H1508       H  0.95796440  0.25312570  0.46063898     0.43800
C1509       C  0.66494023  0.07243448  0.46663834    -0.05200
C1510       C  0.68937063  0.05672103  0.45044269    -0.32600
C1511       C  0.72855437  0.07758126  0.45993136     0.36600
C1512       C  0.74324697  0.11414854  0.48664283    -0.05600
C1513       C  0.71874432  0.13071823  0.00303834    -0.32500
C1514       C  0.67941202  0.10879327  0.49320021     0.36500
H1515       H  0.67895793  0.02950409  0.42932928     0.16900
O1516       O  0.75372257  0.06434315  0.44114152    -0.60000
H1517       H  0.73074161  0.16028227  0.02215069     0.16900
O1518       O  0.65779928  0.12804846  0.00811894    -0.60100
H1519       H  0.66726747  0.14783392  0.99466349     0.43900
H1520       H  0.74159845  0.03726039  0.44676679     0.43800
C1521       C  0.84669026  0.14421421  0.49777736     0.03400
C1522       C  0.80373052  0.12038987  0.49632973    -0.12800
C1523       C  0.78664260  0.14003108  0.49455344     0.00900
C1524       C  0.81276029  0.18421680  0.49589371    -0.11300
C1525       C  0.85576106  0.20864230  0.49795016     0.03400
C1526       C  0.87231728  0.18845552  0.49961200    -0.10700
H1527       H  0.78433978  0.08605044  0.49415138     0.09000
H1528       H  0.80015134  0.19892366  0.49266164     0.06500
H1529       H  0.90559451  0.20639869  0.50020821     0.06300
C1530       C  0.85236995  0.15089331  0.74882597     0.03400
C1531       C  0.87570502  0.19354800  0.74645067    -0.12800
C1532       C  0.85591351  0.20966007  0.74371293     0.00900
C1533       C  0.81235562  0.18397206  0.74523200    -0.11300
C1534       C  0.78801950  0.14161200  0.74870967     0.03400
C1535       C  0.80838352  0.12543577  0.75105728    -0.10700
H1536       H  0.90962323  0.21292298  0.74364093     0.09000
H1537       H  0.79778187  0.19629799  0.74130360     0.06500
H1538       H  0.79049041  0.09244125  0.75254904     0.06300
C1539       C  0.64088250  0.32463497  0.84194330     0.03400
C1540       C  0.68348785  0.34703784  0.84422364    -0.12800
C1541       C  0.69945955  0.32519733  0.84331094     0.00900
C1542       C  0.67253054  0.28052249  0.83959010    -0.11300
C1543       C  0.62957748  0.25763522  0.83819680     0.03400
C1544       C  0.61422378  0.27984396  0.83817998    -0.10700
H1545       H  0.70341629  0.38182585  0.84920823     0.09000
H1546       H  0.68461232  0.26418054  0.84072888     0.06500
H1547       H  0.58110284  0.26297584  0.83770827     0.06300
C1548       C  0.65016028  0.33619224  0.59372577     0.03400
C1549       C  0.62562186  0.29207067  0.59217126    -0.12800
C1550       C  0.64376631  0.27321160  0.59352338     0.00900
C1551       C  0.68715564  0.29841393  0.59390262    -0.11300
C1552       C  0.71182540  0.34245344  0.59539156     0.03400
C1553       C  0.69339953  0.36114310  0.59475611    -0.10700
H1554       H  0.59202284  0.27340322  0.59272972     0.09000
H1555       H  0.70130096  0.28485344  0.59652289     0.06500
H1556       H  0.71187937  0.39568238  0.59816909     0.06300
O1557       O  0.55534031  0.42019337  0.85800472    -0.75000
O1558       O  0.55708518  0.42824268  0.91157367    -0.53900
C1559       C  0.56511084  0.41575078  0.88037978     0.78700
O1560       O  0.57172180  0.10468565  0.88963823    -0.59600
O1561       O  0.50594178  0.07201928  0.87854109    -0.54100
C1562       C  0.54522590  0.10244976  0.87824401     0.70700
O1563       O  0.62182664  0.07399960  0.94448872    -0.74200
O1564       O  0.59483919  0.51191278  0.95755463    -0.54800
C1565       C  0.62425325  0.05144479  0.95623299     0.76700
O1566       O  0.50762671  0.46333448  0.81282087    -0.59300
O1567       O  0.97159801  0.99437927  0.83543886    -0.52500
C1568       C  0.98963541  0.47935466  0.81038239     0.73300
Zr1569     Zr  0.52101938  0.45059808  0.85611350     2.54700
O1570       O  0.58803507  0.48211101  0.82143364    -0.79900
O1571       O  0.98447965  0.37810811  0.81916408    -0.93300
Zr1572     Zr  0.57121929  0.06397806  0.91856749     2.64700
O1573       O  0.63761254  0.09335231  0.88288913    -0.98300
O1574       O  0.59583875  0.13371429  0.95707686    -0.80300
O1575       O  0.56214427  0.49802603  0.90048970    -0.83700
O1576       O  0.53103517  0.01667094  0.87385384    -2.18400
O1577       O  0.86533803  0.39395328  0.89572796    -0.67100
O1578       O  0.89155350  0.45333561  0.87927336    -0.51700
C1579       C  0.86195453  0.41499820  0.88312580     0.71700
O1580       O  0.98228261  0.00917800  0.52734024    -0.60000
O1581       O  0.51909971  0.47815512  0.50407746    -0.52000
C1582       C  0.99974743  0.49121262  0.52871948     0.73500
O1583       O  0.93508194  0.05120551  0.98239440    -0.71400
O1584       O  0.93180204  0.04210875  0.92893188    -0.50100
C1585       C  0.92540542  0.05602009  0.96023436     0.74900
O1586       O  0.91554170  0.36499817  0.95098028    -0.66700
O1587       O  0.98141664  0.39686226  0.96110075    -0.53900
C1588       C  0.94198640  0.36704865  0.96218051     0.73200
Zr1589     Zr  0.91637923  0.40378870  0.92020569     2.77500
O1590       O  0.85193720  0.37526645  0.95814258    -0.97500
O1591       O  0.89027586  0.33347791  0.88219996    -0.78300
Zr1592     Zr  0.96674680  0.01804114  0.98364662     2.70100
O1593       O  0.90062574  0.48492089  0.51881566    -0.79500
O1594       O  0.50407832  0.08909258  0.52000278    -0.98600
Zr1595     Zr  0.52354367  0.46347990  0.94503958     2.21500
Zr1596     Zr  0.96318628  0.00457404  0.89429357     2.11100
O1597       O  0.92539744  0.47076397  0.93874187    -2.47300
O1598       O  0.95638018  0.45098796  0.96487019    -0.79300
O1599       O  0.95184035  0.43560058  0.87415260    -0.71500
O1600       O  0.53505908  0.03130967  0.96399975    -2.32500
O1601       O  0.98235030  0.41515157  0.90057410    -2.28700
O1602       O  0.50478338  0.05214363  0.93749752    -0.73300
H1603       H  0.54493958  0.03029977  0.85556852     0.78700
H1604       H  0.55139955  0.04874637  0.98231598     0.79800
H1605       H  0.89847388  0.46630587  0.94516368     0.82000
H1606       H  0.97893071  0.38817364  0.89474597     0.79600
H1607       H  0.59205060  0.12881295  0.97866446     0.42700
H1608       H  0.48332663  0.08697210  0.53973755     0.41600
H1609       H  0.88439385  0.45416778  0.50720467     0.41300
H1610       H  0.84262103  0.39355612  0.96170240     0.39200
H1611       H  0.89317017  0.33802450  0.86070103     0.42400
H1612       H  0.97360069  0.35823712  0.83296981     0.37200
H1613       H  0.59376933  0.50813523  0.81872051     0.43300
H1614       H  0.62991617  0.08417139  0.86059694     0.39700
H1615       H  0.83123115  0.34699629  0.94508517     0.44600
H1616       H  0.51462175  0.38493656  0.79909654     0.43300
H1617       H  0.65136509  0.12476830  0.88940869     0.43500
H1618       H  0.02700228  0.09618372  0.52776509     0.43800
O1619       O  0.56157531  0.42816308  0.60783605    -0.75000
O1620       O  0.55851148  0.43096624  0.66124324    -0.53900
C1621       C  0.56837203  0.42058114  0.63005844     0.78700
O1622       O  0.58498339  0.11953415  0.64890171    -0.59600
O1623       O  0.52169642  0.08910297  0.63413297    -0.52700
C1624       C  0.56075774  0.11927129  0.63632287     0.70700
O1625       O  0.62464796  0.07808072  0.70283866    -0.74200
O1626       O  0.59492505  0.51182513  0.71253852    -0.54800
C1627       C  0.62527015  0.05307092  0.71301486     0.76700
O1628       O  0.51774975  0.47536505  0.56373972    -0.59300
O1629       O  0.98448024  0.01028179  0.58727219    -0.52500
C1630       C  0.00022039  0.49096660  0.56171693     0.73300
Zr1631     Zr  0.52943151  0.46104275  0.60676427     2.54700
O1632       O  0.59343292  0.48899808  0.56841325    -0.79900
O1633       O  0.99477241  0.39148974  0.56804768    -0.93300
Zr1634     Zr  0.57885914  0.07272699  0.67499990     2.64700
O1635       O  0.64485583  0.09720080  0.63899985    -0.98300
O1636       O  0.60918118  0.14306056  0.71341458    -0.80300
O1637       O  0.56811862  0.50387339  0.65294997    -0.83700
O1638       O  0.54277129  0.03111145  0.62777094    -2.18400
O1639       O  0.87553443  0.40932846  0.64274318    -0.67100
O1640       O  0.90512304  0.47233846  0.63011295    -0.51700
C1641       C  0.87442578  0.43367170  0.63219932     0.71700
O1642       O  0.97548398  0.00010071  0.77629443    -0.60000
O1643       O  0.51267445  0.47021767  0.75364724    -0.52000
C1644       C  0.99309660  0.48378118  0.77781957     0.73500
O1645       O  0.93923531  0.05660979  0.73430962    -0.71400
O1646       O  0.94433253  0.05604529  0.68109027    -0.50100
C1647       C  0.93396599  0.06584491  0.71226467     0.74900
O1648       O  0.91977388  0.36425377  0.68818693    -0.66700
O1649       O  0.98122113  0.39662123  0.70698961    -0.53900
C1650       C  0.94332976  0.36485841  0.70180324     0.73200
Zr1651     Zr  0.92314579  0.41169840  0.66549713     2.77500
O1652       O  0.85577254  0.37766161  0.69943110    -0.97500
O1653       O  0.89947261  0.34638082  0.62146392    -0.78300
Zr1654     Zr  0.97019730  0.02213072  0.73467064     2.70100
O1655       O  0.90570929  0.49601924  0.77082186    -0.79500
O1656       O  0.50783238  0.08954684  0.77406808    -0.98600
Zr1657     Zr  0.52556260  0.46639103  0.69565288     2.21500
Zr1658     Zr  0.97634096  0.01972584  0.64592597     2.11100
O1659       O  0.93310734  0.47920697  0.68772266    -2.47300
O1660       O  0.95900370  0.45394820  0.71281496    -0.79300
O1661       O  0.96297718  0.44854498  0.62263466    -0.71500
O1662       O  0.53809141  0.03497710  0.71771094    -2.32500
O1663       O  0.98905258  0.42272570  0.64869152    -2.28700
O1664       O  0.51251058  0.06148000  0.69262520    -0.73300
H1665       H  0.55797003  0.04641611  0.61041872     0.78700
H1666       H  0.55265933  0.05003246  0.73694739     0.79800
H1667       H  0.90648760  0.47530109  0.69354749     0.82000
H1668       H  0.98535025  0.39549264  0.64158257     0.79600
H1669       H  0.58974531  0.13772942  0.73411547     0.42700
H1670       H  0.48540903  0.09012641  0.79089421     0.41600
H1671       H  0.88877996  0.46443920  0.76213862     0.41300
H1672       H  0.84942511  0.39927874  0.70820432     0.39200
H1673       H  0.90688790  0.35582624  0.60117817     0.42400
H1674       H  0.98807971  0.37089911  0.57933413     0.37200
H1675       H  0.61494976  0.51578723  0.58199938     0.43300
H1676       H  0.63713566  0.08688093  0.61653140     0.39700
H1677       H  0.83533304  0.35462301  0.68352383     0.44600
H1678       H  0.47140990  0.38825812  0.56225933     0.43300
H1679       H  0.66004264  0.12877704  0.64404299     0.43500
H1680       H  0.02498342  0.08853238  0.78358381     0.43800
C1681       C  0.57932082  0.15614904  0.62305815    -0.05200
C1682       C  0.56555568  0.18271634  0.63769821    -0.32600
C1683       C  0.58473978  0.21981857  0.62712602     0.36600
C1684       C  0.61773654  0.23026239  0.60089392    -0.05600
C1685       C  0.62992246  0.20215353  0.58513773    -0.32500
C1686       C  0.61133664  0.16563540  0.59635549     0.36500
H1687       H  0.54121150  0.17581491  0.65849691     0.16900
O1688       O  0.57362232  0.24758770  0.64462044    -0.60000
H1689       H  0.65508036  0.20947124  0.56491721     0.16900
O1690       O  0.62447208  0.13928816  0.58105346    -0.60100
H1691       H  0.65009619  0.15324302  0.59080801     0.43900
H1692       H  0.54615880  0.23390655  0.63797191     0.43800
C1693       C  0.83387691  0.41540891  0.62344032    -0.05200
C1694       C  0.79804598  0.39262253  0.64457326    -0.32600
C1695       C  0.75840269  0.37029145  0.63595716     0.36600
C1696       C  0.75397226  0.36983006  0.60547187    -0.05600
C1697       C  0.78966433  0.39450009  0.58494553    -0.32500
C1698       C  0.82973990  0.41729312  0.59380683     0.36500
H1699       H  0.80084481  0.39154577  0.66772360     0.16900
O1700       O  0.72401446  0.34795780  0.65715630    -0.60000
H1701       H  0.78645399  0.39476430  0.56163743     0.16900
O1702       O  0.86442918  0.43958001  0.57283624    -0.60100
H1703       H  0.87061451  0.41863007  0.55790812     0.43900
H1704       H  0.71408407  0.36655804  0.66892221     0.43800
C1705       C  0.62956954  0.35782268  0.60213732    -0.05200
C1706       C  0.60820238  0.35151212  0.57926202    -0.32600
C1707       C  0.58807654  0.37173437  0.58777023     0.36600
C1708       C  0.58928318  0.39865569  0.61959812    -0.05600
C1709       C  0.61018298  0.40404163  0.64249234    -0.32500
C1710       C  0.63001269  0.38381525  0.63402408     0.36500
H1711       H  0.60713277  0.33088479  0.55484546     0.16900
O1712       O  0.56689759  0.36439595  0.56498870    -0.60000
H1713       H  0.61139881  0.42422463  0.66715512     0.16900
O1714       O  0.64969279  0.38950439  0.65718939    -0.60100
H1715       H  0.62885572  0.36449003  0.66730553     0.43900
H1716       H  0.53726025  0.34120295  0.57049018     0.43800
C1717       C  0.56147166  0.13752730  0.86364989    -0.05200
C1718       C  0.54628791  0.16287988  0.87733720    -0.32600
C1719       C  0.56607113  0.20063639  0.86744458     0.36600
C1720       C  0.60109862  0.21290653  0.84282692    -0.05600
C1721       C  0.61330456  0.18478843  0.82690685    -0.32500
C1722       C  0.59396565  0.14756506  0.83735575     0.36500
H1723       H  0.52080314  0.15494387  0.89731129     0.16900
O1724       O  0.55270270  0.22666124  0.88377940    -0.60000
H1725       H  0.63949427  0.19297423  0.80753547     0.16900
O1726       O  0.60805819  0.12202661  0.82261151    -0.60100
H1727       H  0.58816474  0.09792606  0.80654336     0.43900
H1728       H  0.56930245  0.24635929  0.90268136     0.43800
C1729       C  0.82059157  0.39317216  0.87303033    -0.05200
C1730       C  0.81721574  0.40290921  0.84736215    -0.32600
C1731       C  0.77801968  0.38119542  0.83721958     0.36600
C1732       C  0.74167364  0.34930683  0.85280325    -0.05600
C1733       C  0.74509600  0.34047372  0.87886088    -0.32500
C1734       C  0.78384757  0.36173429  0.88887022     0.36500
H1735       H  0.84501426  0.42675269  0.83473008     0.16900
O1736       O  0.77573692  0.38992905  0.81120933    -0.60000
H1737       H  0.71734196  0.31700411  0.89183212     0.16900
O1738       O  0.78512602  0.35247575  0.91505179    -0.60100
H1739       H  0.78365903  0.32563473  0.90563535     0.43900
H1740       H  0.77902992  0.41772696  0.82027261     0.43800
C1741       C  0.62296090  0.34900693  0.85027632    -0.05200
C1742       C  0.62746761  0.37751873  0.88132129    -0.32600
C1743       C  0.60979618  0.40018413  0.89105365     0.36600
C1744       C  0.58647111  0.39414125  0.86968246    -0.05600
C1745       C  0.58271901  0.36611387  0.83820402    -0.32500
C1746       C  0.60059638  0.34343932  0.82853928     0.36500
H1747       H  0.64449516  0.38192645  0.89835063     0.16900
O1748       O  0.61536154  0.42795892  0.92164610    -0.60000
H1749       H  0.56524080  0.36110011  0.82124733     0.16900
O1750       O  0.59708800  0.31688531  0.79756029    -0.60100
H1751       H  0.56890276  0.28968835  0.79915030     0.43900
H1752       H  0.64506060  0.45294391  0.91979435     0.43800
C1753       C  0.91467505  0.08948493  0.72313738    -0.05200
C1754       C  0.88617818  0.08527067  0.75211667    -0.32600
C1755       C  0.86593779  0.10556819  0.76133989     0.36600
C1756       C  0.87455077  0.13092237  0.74173888    -0.05600
C1757       C  0.90389586  0.13607930  0.71344517    -0.32500
C1758       C  0.92366120  0.11561089  0.70399200     0.36500
H1759       H  0.87880085  0.06538096  0.76719558     0.16900
O1760       O  0.83761085  0.10010949  0.78927169    -0.60000
H1761       H  0.91080230  0.15525914  0.69790824     0.16900
O1762       O  0.95240006  0.12213767  0.67624006    -0.60100
H1763       H  0.93562958  0.10311517  0.65738196     0.43900
H1764       H  0.85370065  0.12530677  0.80692349     0.43800
C1765       C  0.88078818  0.24972708  0.73271858    -0.05200
C1766       C  0.90690608  0.28952068  0.75341755    -0.32600
C1767       C  0.92884806  0.32760880  0.74321294     0.36600
C1768       C  0.92476804  0.32578985  0.71201579    -0.05600
C1769       C  0.89991898  0.28583691  0.69098782    -0.32500
C1770       C  0.87815828  0.24798358  0.70107039     0.36500
H1771       H  0.90936306  0.29106316  0.77772042     0.16900
O1772       O  0.95283558  0.36639615  0.76425212    -0.60000
H1773       H  0.89707708  0.28399634  0.66671093     0.16900
O1774       O  0.85502294  0.20922908  0.67959282    -0.60100
H1775       H  0.82841316  0.20516838  0.68073504     0.43900
H1776       H  0.93340478  0.37431926  0.77788333     0.43800
C1777       C  0.66312683  0.07205887  0.72693340    -0.05200
C1778       C  0.68326062  0.05149554  0.71556666    -0.32600
C1779       C  0.72307537  0.07242585  0.72397108     0.36600
C1780       C  0.74251923  0.11397729  0.74528453    -0.05600
C1781       C  0.72006916  0.13237005  0.75918160    -0.32500
C1782       C  0.68152848  0.11253967  0.74923690     0.36500
H1783       H  0.66956563  0.02050636  0.69805851     0.16900
O1784       O  0.74429104  0.05393729  0.70835746    -0.60000
H1785       H  0.73381130  0.16378585  0.77611555     0.16900
O1786       O  0.66252043  0.13342845  0.76083529    -0.60100
H1787       H  0.67758633  0.15523435  0.74773153     0.43900
H1788       H  0.73134160  0.03045325  0.71918836     0.43800
C1789       C  0.90585860  0.07953582  0.97116826    -0.05200
C1790       C  0.90849774  0.09821594  0.94881933    -0.32600
C1791       C  0.88955664  0.11946792  0.95760317     0.36600
C1792       C  0.86757248  0.12269386  0.98923221    -0.05600
C1793       C  0.86486449  0.10447749  0.01184450    -0.32500
C1794       C  0.88416341  0.08331736  0.00315291     0.36500
H1795       H  0.92527979  0.09632663  0.92428291     0.16900
O1796       O  0.89235771  0.13676135  0.93492363    -0.60000
H1797       H  0.84782893  0.10669835  0.03621371     0.16900
O1798       O  0.88019533  0.06508908  0.02565564    -0.60100
H1799       H  0.90257282  0.08875780  0.03991463     0.43900
H1800       H  0.86655121  0.11430560  0.92396335     0.43800
C1801       C  0.92551979  0.33162797  0.97634672    -0.05200
C1802       C  0.94095382  0.30650370  0.96223862    -0.32600
C1803       C  0.92020066  0.26748272  0.97048551     0.36600
C1804       C  0.88361756  0.25349941  0.99352252    -0.05600
C1805       C  0.87064645  0.28086215  0.50990718    -0.32500
C1806       C  0.89120528  0.31956620  0.00115904     0.36500
H1807       H  0.96738159  0.31561102  0.94304702     0.16900
O1808       O  0.93343353  0.24142930  0.95337508    -0.60000
H1809       H  0.84354636  0.27145569  0.52846957     0.16900
O1810       O  0.87663794  0.34470658  0.51640963    -0.60100
H1811       H  0.89078269  0.36325980  0.53663867     0.43900
H1812       H  0.95934378  0.25478464  0.96244361     0.43800
C1813       C  0.66371448  0.07210729  0.96842864    -0.05200
C1814       C  0.68660696  0.05451910  0.95383372    -0.32600
C1815       C  0.72609249  0.07543230  0.96275793     0.36600
C1816       C  0.74279111  0.11416514  0.98748667    -0.05600
C1817       C  0.71794756  0.12893693  0.50342414    -0.32500
C1818       C  0.67986615  0.11039316  0.99324479     0.36500
H1819       H  0.67488571  0.02575642  0.93403648     0.16900
O1820       O  0.74967096  0.05998967  0.94491280    -0.60000
H1821       H  0.72871563  0.15703369  0.52389242     0.16900
O1822       O  0.65595980  0.12470887  0.50936183    -0.60100
H1823       H  0.66692406  0.14778665  0.49877739     0.43900
H1824       H  0.73606332  0.03302252  0.95142235     0.43800
C1825       C  0.84712551  0.64395041  0.99573437     0.03400
C1826       C  0.80427451  0.61962382  0.99351194    -0.12800
C1827       C  0.78675821  0.63914461  0.99227583     0.00900
C1828       C  0.81246997  0.68346602  0.99422114    -0.11300
C1829       C  0.85529158  0.70826102  0.99699364     0.03400
C1830       C  0.87205524  0.68840443  0.99884576    -0.10700
H1831       H  0.78526460  0.58520307  0.99078002     0.09000
H1832       H  0.79969073  0.69810346  0.99114467     0.06500
H1833       H  0.90514446  0.70687394  0.00049405     0.06300
C1834       C  0.85272732  0.65053096  0.24824964     0.03400
C1835       C  0.87640283  0.69281567  0.24508529    -0.12800
C1836       C  0.85686345  0.70903485  0.24215725     0.00900
C1837       C  0.81324013  0.68395715  0.24455033    -0.11300
C1838       C  0.78868207  0.64179926  0.24849437     0.03400
C1839       C  0.80877430  0.62546495  0.25101962    -0.10700
H1840       H  0.91031879  0.71158300  0.24160340     0.09000
H1841       H  0.79870554  0.69645741  0.24084501     0.06500
H1842       H  0.79072275  0.59257991  0.25286766     0.06300
C1843       C  0.64401268  0.82755919  0.34043375     0.03400
C1844       C  0.68683228  0.85047956  0.34238269    -0.12800
C1845       C  0.70305091  0.82945530  0.34281139     0.00900
C1846       C  0.67617720  0.78501408  0.34042880    -0.11300
C1847       C  0.63312451  0.76181148  0.33942078     0.03400
C1848       C  0.61749617  0.78309431  0.33810257    -0.10700
H1849       H  0.70657616  0.88517845  0.34652149     0.09000
H1850       H  0.68837312  0.76924589  0.34247037     0.06500
H1851       H  0.58422250  0.76593917  0.33806036     0.06300
C1852       C  0.65327107  0.83902986  0.09459081     0.03400
C1853       C  0.62736726  0.79488899  0.09348383    -0.12800
C1854       C  0.64429586  0.77448301  0.09407917     0.00900
C1855       C  0.68768644  0.79814020  0.09349754    -0.11300
C1856       C  0.71363755  0.84213392  0.09462065     0.03400
C1857       C  0.69655292  0.86230474  0.09438183    -0.10700
H1858       H  0.59380492  0.77737259  0.09475286     0.09000
H1859       H  0.70094626  0.78348347  0.09573212     0.06500
H1860       H  0.71628961  0.89680348  0.09707954     0.06300
O1861       O  0.55635310  0.92121436  0.35780651    -0.75000
O1862       O  0.55745863  0.92834486  0.41132151    -0.53900
C1863       C  0.56589654  0.91641791  0.38008662     0.78700
O1864       O  0.57252970  0.60945018  0.39344177    -0.59600
O1865       O  0.50724296  0.57611969  0.38097330    -0.54100
C1866       C  0.54631027  0.60715396  0.38167451     0.70700
O1867       O  0.62390540  0.57693153  0.44493902    -0.74200
O1868       O  0.59636958  0.01241310  0.45618078    -0.54800
C1869       C  0.62681930  0.55396536  0.45568984     0.76700
O1870       O  0.50743670  0.96194693  0.31231371    -0.59300
O1871       O  0.97144232  0.49435804  0.33544792    -0.52500
C1872       C  0.99215963  0.98100356  0.31133597     0.73300
Zr1873     Zr  0.52038413  0.94986361  0.35609966     2.54700
O1874       O  0.58412904  0.97734853  0.31742707    -0.79900
O1875       O  0.98538065  0.88041772  0.32178143    -0.93300
Zr1876     Zr  0.57251787  0.56784937  0.42084066     2.64700
O1877       O  0.63986908  0.60079824  0.38668364    -0.98300
O1878       O  0.59565173  0.63591569  0.46157978    -0.80300
O1879       O  0.56202425  0.99805136  0.40020945    -0.83700
O1880       O  0.53360670  0.52111781  0.37525145    -2.18400
O1881       O  0.86808097  0.89790672  0.39631425    -0.67100
O1882       O  0.89477699  0.95741240  0.37981134    -0.51700
C1883       C  0.86503629  0.91909514  0.38354306     0.71700
O1884       O  0.98054761  0.50646086  0.02615859    -0.60000
O1885       O  0.51692475  0.97532079  0.00371553    -0.52000
C1886       C  0.99890858  0.99049990  0.02900763     0.73500
O1887       O  0.93304995  0.54909556  0.48245865    -0.71400
O1888       O  0.93058007  0.54070183  0.42884479    -0.50100
C1889       C  0.92355960  0.55389806  0.46015395     0.74900
O1890       O  0.91672696  0.86716972  0.45148677    -0.66700
O1891       O  0.98242471  0.89934353  0.46230914    -0.53900
C1892       C  0.94302403  0.86930732  0.46293890     0.73200
Zr1893     Zr  0.91848612  0.90675035  0.42103248     2.77500
O1894       O  0.85350055  0.87564147  0.45807232    -0.97500
O1895       O  0.89443732  0.83778848  0.38143353    -0.78300
Zr1896     Zr  0.96673528  0.51775180  0.48341567     2.70100
O1897       O  0.90055128  0.98888563  0.01948245    -0.79500
O1898       O  0.50014711  0.58822264  0.02100066    -0.98600
Zr1899     Zr  0.52431522  0.96403095  0.44506918     2.21500
Zr1900     Zr  0.96358282  0.50494844  0.39425091     2.11100
O1901       O  0.92754414  0.97371676  0.43980083    -2.47300
O1902       O  0.95848915  0.95388672  0.46576014    -0.79300
O1903       O  0.95440199  0.93881292  0.37526309    -0.71500
O1904       O  0.53612284  0.53388279  0.46549082    -2.32500
O1905       O  0.98448847  0.91803798  0.40213927    -2.28700
O1906       O  0.50555583  0.55486074  0.43930831    -0.73300
H1907       H  0.54751581  0.53525639  0.35725052     0.78700
H1908       H  0.55233037  0.55104194  0.48388075     0.79800
H1909       H  0.90058766  0.96918093  0.44609955     0.82000
H1910       H  0.98095294  0.89101048  0.39636867     0.79600
H1911       H  0.60075264  0.63275086  0.48038203     0.42700
H1912       H  0.47842812  0.58492066  0.04016340     0.41600
H1913       H  0.88511841  0.95735732  0.01086660     0.41300
H1914       H  0.84418481  0.89426372  0.46289631     0.39200
H1915       H  0.89662193  0.84296204  0.36045054     0.42400
H1916       H  0.97702049  0.86107279  0.33515240     0.37200
H1917       H  0.59346577  0.00647859  0.31841326     0.43300
H1918       H  0.63298923  0.59380541  0.36455326     0.39700
H1919       H  0.83306540  0.84814959  0.44418142     0.44600
H1920       H  0.50918798  0.87872088  0.30279515     0.43300
H1921       H  0.65322905  0.63209821  0.39501116     0.43500
H1922       H  0.98058431  0.59030230  0.03635333     0.43800
O1923       O  0.56503712  0.93092846  0.10765489    -0.75000
O1924       O  0.56213598  0.93343302  0.16098337    -0.53900
C1925       C  0.57252431  0.92392329  0.12981688     0.78700
O1926       O  0.58414578  0.62096799  0.14958289    -0.59600
O1927       O  0.52108685  0.58960029  0.13385228    -0.52700
C1928       C  0.55986647  0.62028998  0.13669178     0.70700
O1929       O  0.62517726  0.57972538  0.20315136    -0.74200
O1930       O  0.59545729  0.01098902  0.21231887    -0.54800
C1931       C  0.62623978  0.55449797  0.21266164     0.76700
O1932       O  0.51764533  0.97484288  0.06347393    -0.59300
O1933       O  0.98286517  0.50776093  0.08631561    -0.52500
C1934       C  0.00004507  0.99073752  0.06211310     0.73300
Zr1935     Zr  0.53149444  0.96225767  0.10636547     2.54700
O1936       O  0.59722395  0.99447739  0.07024615    -0.79900
O1937       O  0.00316761  0.89652667  0.06437859    -0.93300
Zr1938     Zr  0.57918723  0.57480275  0.17567717     2.64700
O1939       O  0.64696838  0.60357630  0.14198866    -0.98300
O1940       O  0.60620924  0.64381430  0.21575785    -0.80300
O1941       O  0.56947949  0.00444795  0.15281852    -0.83700
O1942       O  0.54353570  0.53267965  0.12803624    -2.18400
O1943       O  0.87652330  0.90907869  0.14411389    -0.67100
O1944       O  0.90636456  0.97105744  0.12978076    -0.51700
C1945       C  0.87553884  0.93268904  0.13260121     0.71700
O1946       O  0.97592420  0.50091058  0.27642588    -0.60000
O1947       O  0.51298131  0.96906514  0.25300358    -0.52000
C1948       C  0.99501373  0.98461995  0.27862597     0.73500
O1949       O  0.94171594  0.55919459  0.23406178    -0.71400
O1950       O  0.94350623  0.55493572  0.18052181    -0.50100
C1951       C  0.93495238  0.56666410  0.21173884     0.74900
O1952       O  0.92196630  0.86449228  0.18767846    -0.66700
O1953       O  0.98356351  0.89638507  0.20588864    -0.53900
C1954       C  0.94569202  0.86462264  0.20061259     0.73200
Zr1955     Zr  0.92504144  0.91238468  0.16615982     2.77500
O1956       O  0.85799455  0.87813950  0.20043460    -0.97500
O1957       O  0.89898561  0.84614411  0.12297638    -0.78300
Zr1958     Zr  0.97101365  0.52337395  0.23479261     2.70100
O1959       O  0.90675550  0.99529244  0.27130822    -0.79500
O1960       O  0.50764428  0.59071176  0.27538631    -0.98600
Zr1961     Zr  0.52660929  0.96615376  0.19504086     2.21500
Zr1962     Zr  0.97471267  0.51802050  0.14533917     2.11100
O1963       O  0.93458847  0.97962087  0.18848296    -2.47300
O1964       O  0.96070399  0.95441305  0.21357834    -0.79300
O1965       O  0.96460592  0.94897101  0.12311256    -0.71500
O1966       O  0.53870869  0.53711256  0.21836279    -2.32500
O1967       O  0.99115668  0.92387218  0.14892590    -2.28700
O1968       O  0.51264901  0.56287538  0.19250313    -0.73300
H1969       H  0.55867401  0.54793716  0.11064949     0.78700
H1970       H  0.55329512  0.55230105  0.23763302     0.79800
H1971       H  0.90789130  0.97554760  0.19428199     0.82000
H1972       H  0.98755819  0.89667245  0.14152920     0.79600
H1973       H  0.59448662  0.63649010  0.23753329     0.42700
H1974       H  0.51605259  0.61311576  0.26526971     0.41600
H1975       H  0.88595908  0.96818637  0.25737082     0.41300
H1976       H  0.85035111  0.89863602  0.20796577     0.39200
H1977       H  0.90034229  0.85385260  0.10367146     0.42400
H1978       H  0.98986005  0.87359640  0.07587445     0.37200
H1979       H  0.60363360  0.02186614  0.06987350     0.43300
H1980       H  0.64022529  0.59055126  0.11895700     0.39700
H1981       H  0.83784500  0.85362222  0.18474895     0.44600
H1982       H  0.47435625  0.88640480  0.06288946     0.43300
H1983       H  0.65918624  0.63431171  0.14550734     0.43500
H1984       H  0.98737132  0.59266132  0.29172807     0.43800
C1985       C  0.57823581  0.65715726  0.12353640    -0.05200
C1986       C  0.56571773  0.68477029  0.13896906    -0.32600
C1987       C  0.58519684  0.72193919  0.12833482     0.36600
C1988       C  0.61732110  0.73144675  0.10143430    -0.05600
C1989       C  0.62808947  0.70225611  0.08494685    -0.32500
C1990       C  0.60918379  0.66566617  0.09612282     0.36500
H1991       H  0.54218167  0.67859059  0.16032701     0.16900
O1992       O  0.57528550  0.75059387  0.14629751    -0.60000
H1993       H  0.65254953  0.70884862  0.06420970     0.16900
O1994       O  0.62119887  0.63842866  0.08021028    -0.60100
H1995       H  0.64489411  0.64972834  0.09129278     0.43900
H1996       H  0.54764287  0.73755112  0.14035743     0.43800
C1997       C  0.83511838  0.91375892  0.12323069    -0.05200
C1998       C  0.79900038  0.89079532  0.14411147    -0.32600
C1999       C  0.75957356  0.86855915  0.13513585     0.36600
C2000       C  0.75566602  0.86823692  0.10449438    -0.05600
C2001       C  0.79163794  0.89253299  0.08398692    -0.32500
C2002       C  0.83148079  0.91525634  0.09322279     0.36500
H2003       H  0.80139999  0.88978767  0.16745564     0.16900
O2004       O  0.72487997  0.84652985  0.15628329    -0.60000
H2005       H  0.78880538  0.89282944  0.06053840     0.16900
O2006       O  0.86646850  0.93739231  0.07238247    -0.60100
H2007       H  0.87236061  0.91623039  0.05747462     0.43900
H2008       H  0.71472491  0.86500431  0.16733794     0.43800
C2009       C  0.63435099  0.86222329  0.10234185    -0.05200
C2010       C  0.60780115  0.85092538  0.08146432    -0.32600
C2011       C  0.58807261  0.87142407  0.08964234     0.36600
C2012       C  0.59468405  0.90346456  0.11917496    -0.05600
C2013       C  0.62126910  0.91459052  0.13999272    -0.32500
C2014       C  0.64087148  0.89417164  0.13186925     0.36500
H2015       H  0.60210631  0.82591072  0.05896487     0.16900
O2016       O  0.56149757  0.85900569  0.06913148    -0.60000
H2017       H  0.62652766  0.93892452  0.16290823     0.16900
O2018       O  0.66545124  0.90482853  0.15341967    -0.60100
H2019       H  0.64641800  0.88434565  0.16789358     0.43900
H2020       H  0.53331642  0.83655326  0.07784756     0.43800
C2021       C  0.56323976  0.64248581  0.36708377    -0.05200
C2022       C  0.54912833  0.66882013  0.38060911    -0.32600
C2023       C  0.57014522  0.70682288  0.37057193     0.36600
C2024       C  0.60481736  0.71793466  0.34563402    -0.05600
C2025       C  0.61651824  0.68940093  0.33043586    -0.32500
C2026       C  0.59635556  0.65229157  0.34126796     0.36500
H2027       H  0.52367605  0.66150959  0.40059209     0.16900
O2028       O  0.55847558  0.73427812  0.38710811    -0.60000
H2029       H  0.64280997  0.69702527  0.31118743     0.16900
O2030       O  0.61039104  0.62666559  0.32744446    -0.60100
H2031       H  0.59123544  0.60276586  0.31083536     0.43900
H2032       H  0.57607704  0.75399256  0.40542549     0.43800
C2033       C  0.82389983  0.89756156  0.37318522    -0.05200
C2034       C  0.82080387  0.90777811  0.34764399    -0.32600
C2035       C  0.78170560  0.88630544  0.33737501     0.36600
C2036       C  0.74520503  0.85427297  0.35277653    -0.05600
C2037       C  0.74841143  0.84540811  0.37893351    -0.32500
C2038       C  0.78702200  0.86609580  0.38884547     0.36500
H2039       H  0.84873352  0.93174141  0.33518272     0.16900
O2040       O  0.77971183  0.89539918  0.31143849    -0.60000
H2041       H  0.72058757  0.82204276  0.39193607     0.16900
O2042       O  0.78804207  0.85615741  0.41473915    -0.60100
H2043       H  0.78423231  0.82809574  0.40537627     0.43900
H2044       H  0.78237996  0.92287426  0.32076129     0.43800
C2045       C  0.62559138  0.85142681  0.34887994    -0.05200
C2046       C  0.63008451  0.87980200  0.37997933    -0.32600
C2047       C  0.61147452  0.90159302  0.39019971     0.36600
C2048       C  0.58760546  0.89515910  0.36911986    -0.05600
C2049       C  0.58367264  0.86709842  0.33762289    -0.32500
C2050       C  0.60206375  0.84488030  0.32762482     0.36500
H2051       H  0.64764706  0.88458807  0.39675726     0.16900
O2052       O  0.61651747  0.92875731  0.42103579    -0.60000
H2053       H  0.56550062  0.86155815  0.32098677     0.16900
O2054       O  0.59760363  0.81756125  0.29691296    -0.60100
H2055       H  0.56961156  0.79040323  0.29923605     0.43900
H2056       H  0.64598571  0.95422621  0.41942420     0.43800
C2057       C  0.91550166  0.58998997  0.22228854    -0.05200
C2058       C  0.88962475  0.58847577  0.25257946    -0.32600
C2059       C  0.86894059  0.60823520  0.26172964     0.36600
C2060       C  0.87447446  0.63020538  0.24066745    -0.05600
C2061       C  0.90084837  0.63236879  0.21082164    -0.32500
C2062       C  0.92113825  0.61252175  0.20148169     0.36500
H2063       H  0.88466911  0.57116266  0.26883764     0.16900
O2064       O  0.84328405  0.60567987  0.29105856    -0.60000
H2065       H  0.90522480  0.64901989  0.19425081     0.16900
O2066       O  0.94714268  0.61622629  0.17222543    -0.60100
H2067       H  0.92833570  0.59489801  0.15480878     0.43900
H2068       H  0.86144822  0.63159952  0.30736111     0.43800
C2069       C  0.88200345  0.74883193  0.23077512    -0.05200
C2070       C  0.91206154  0.78786211  0.24962056    -0.32600
C2071       C  0.93454696  0.82600182  0.23944383     0.36600
C2072       C  0.92710971  0.82503320  0.21004223    -0.05600
C2073       C  0.89859339  0.78559517  0.19047884    -0.32500
C2074       C  0.87620419  0.74765655  0.20057341     0.36500
H2075       H  0.91717041  0.78887920  0.27264623     0.16900
O2076       O  0.96242027  0.86411068  0.25894979    -0.60000
H2077       H  0.89323516  0.78423151  0.16741297     0.16900
O2078       O  0.84949295  0.70933886  0.18039943    -0.60100
H2079       H  0.82473506  0.70897612  0.18234836     0.43900
H2080       H  0.94627414  0.87588888  0.27326023     0.43800
C2081       C  0.66435501  0.57325786  0.22614459    -0.05200
C2082       C  0.68462944  0.55276342  0.21424751    -0.32600
C2083       C  0.72409254  0.57317259  0.22310079     0.36600
C2084       C  0.74330288  0.61435328  0.24491713    -0.05600
C2085       C  0.72087092  0.63273356  0.25908049    -0.32500
C2086       C  0.68236371  0.61313450  0.24919250     0.36500
H2087       H  0.67112273  0.52209863  0.19634403     0.16900
O2088       O  0.74510990  0.55443376  0.20776067    -0.60000
H2089       H  0.73449008  0.66385512  0.27641053     0.16900
O2090       O  0.66272446  0.63342819  0.26191693    -0.60100
H2091       H  0.67737910  0.65588713  0.24953113     0.43900
H2092       H  0.73219499  0.53131311  0.21898853     0.43800
C2093       C  0.90457777  0.57767555  0.47084102    -0.05200
C2094       C  0.91696537  0.60562861  0.45221037    -0.32600
C2095       C  0.89965843  0.62839641  0.46078644     0.36600
C2096       C  0.86950018  0.62384415  0.48864627    -0.05600
C2097       C  0.85674075  0.59572109  0.50734020    -0.32500
C2098       C  0.87433993  0.57290527  0.49875120     0.36500
H2099       H  0.94016755  0.60975893  0.43069725     0.16900
O2100       O  0.91159553  0.65414779  0.44111829    -0.60000
H2101       H  0.83294554  0.59126017  0.52842249     0.16900
O2102       O  0.86012786  0.54433094  0.51659303    -0.60100
H2103       H  0.87631036  0.56183149  0.53575504     0.43900
H2104       H  0.89093346  0.63564645  0.42497437     0.43800
C2105       C  0.92653150  0.83366231  0.47679824    -0.05200
C2106       C  0.94176489  0.80840665  0.46213463    -0.32600
C2107       C  0.92150139  0.76956515  0.47044439     0.36600
C2108       C  0.88554826  0.75579821  0.49410462    -0.05600
C2109       C  0.86970156  0.78027983  0.00909914    -0.32500
C2110       C  0.89271026  0.82176617  0.50203548     0.36500
H2111       H  0.96770807  0.81733058  0.44253143     0.16900
O2112       O  0.93446385  0.74338916  0.45277199    -0.60000
H2113       H  0.84226454  0.77060519  0.02733446     0.16900
O2114       O  0.87659132  0.84478864  0.01623803    -0.60100
H2115       H  0.89289535  0.86486246  0.03525262     0.43900
H2116       H  0.96129152  0.75726571  0.46065858     0.43800
C2117       C  0.66652592  0.57438757  0.46724718    -0.05200
C2118       C  0.69053214  0.55821226  0.45098941    -0.32600
C2119       C  0.72996721  0.57902314  0.45996991     0.36600
C2120       C  0.74549011  0.61620923  0.48616095    -0.05600
C2121       C  0.71801173  0.62827169  0.00253423    -0.32500
C2122       C  0.68149693  0.61100777  0.49355312     0.36500
H2123       H  0.67955180  0.53057769  0.43020244     0.16900
O2124       O  0.75450258  0.56501086  0.44114673    -0.60000
H2125       H  0.72938519  0.65668213  0.02272628     0.16900
O2126       O  0.65568625  0.62401272  0.00990539    -0.60100
H2127       H  0.66622757  0.64687354  0.99924788     0.43900
H2128       H  0.74146616  0.53743535  0.44641938     0.43800
C2129       C  0.84959526  0.64623522  0.49630883     0.03400
C2130       C  0.80658547  0.62228222  0.49469040    -0.12800
C2131       C  0.78916588  0.64200212  0.49360814     0.00900
C2132       C  0.81506126  0.68638490  0.49569889    -0.11300
C2133       C  0.85800406  0.71093538  0.49801330     0.03400
C2134       C  0.87475124  0.69074592  0.49926399    -0.10700
H2135       H  0.78732237  0.58789711  0.49219721     0.09000
H2136       H  0.80234423  0.70126576  0.49294972     0.06500
H2137       H  0.90792075  0.70910430  0.50057566     0.06300
C2138       C  0.85305568  0.65049172  0.74744540     0.03400
C2139       C  0.87594995  0.69253521  0.74376583    -0.12800
C2140       C  0.85546531  0.70809504  0.74127091     0.00900
C2141       C  0.81177276  0.68255245  0.74444231    -0.11300
C2142       C  0.78803162  0.64060962  0.74857852     0.03400
C2143       C  0.80899517  0.62502790  0.75080915    -0.10700
H2144       H  0.90987603  0.71178318  0.73996097     0.09000
H2145       H  0.79644709  0.69452266  0.74121706     0.06500
H2146       H  0.79139226  0.59230629  0.75288613     0.06300
C2147       C  0.64179042  0.82466685  0.83991412     0.03400
C2148       C  0.68457848  0.84695519  0.84157094    -0.12800
C2149       C  0.70025268  0.82547692  0.84212820     0.00900
C2150       C  0.67284309  0.78111800  0.84011379    -0.11300
C2151       C  0.62982652  0.75837422  0.83902560     0.03400
C2152       C  0.61467237  0.78026581  0.83800966    -0.10700
H2153       H  0.70484579  0.88161541  0.84529536     0.09000
H2154       H  0.68464578  0.76501248  0.84222430     0.06500
H2155       H  0.58143695  0.76358030  0.83817857     0.06300
C2156       C  0.64867915  0.83520773  0.59375758     0.03400
C2157       C  0.62598252  0.79117609  0.59193403    -0.12800
C2158       C  0.64522775  0.77456800  0.59530622     0.00900
C2159       C  0.68836545  0.80184451  0.59742561    -0.11300
C2160       C  0.71160384  0.84551526  0.59812275     0.03400
C2161       C  0.69181393  0.86209176  0.59596615    -0.10700
H2162       H  0.59268541  0.77061788  0.59027619     0.09000
H2163       H  0.70346292  0.79005724  0.60135305     0.06500
H2164       H  0.70908248  0.89641958  0.59906345     0.06300
O2165       O  0.55502211  0.91917435  0.85656345    -0.75000
O2166       O  0.55730080  0.92751939  0.91009402    -0.53900
C2167       C  0.56516082  0.91497386  0.87882014     0.78700
O2168       O  0.57066190  0.60616741  0.89189248    -0.59600
O2169       O  0.50539779  0.57239312  0.87909235    -0.54100
C2170       C  0.54439382  0.60346299  0.87980179     0.70700
O2171       O  0.62165334  0.57380995  0.94432280    -0.74200
O2172       O  0.59508922  0.01221067  0.95784179    -0.54800
C2173       C  0.62411546  0.55096239  0.95563819     0.76700
O2174       O  0.50803357  0.96229678  0.81183854    -0.59300
O2175       O  0.97109779  0.49372107  0.83467768    -0.52500
C2176       C  0.98954844  0.97946168  0.81094372     0.73300
Zr2177     Zr  0.51970692  0.94875061  0.85547957     2.54700
O2178       O  0.58411362  0.97580769  0.81749039    -0.79900
O2179       O  0.98324812  0.87844905  0.81957269    -0.93300
Zr2180     Zr  0.57082992  0.56500403  0.91976749     2.64700
O2181       O  0.63699694  0.59614463  0.88398526    -0.98300
O2182       O  0.59607915  0.63391517  0.95963016    -0.80300
O2183       O  0.56173663  0.99658328  0.89944971    -0.83700
O2184       O  0.53133277  0.51801811  0.87466329    -2.18400
O2185       O  0.86582983  0.89512747  0.89530505    -0.67100
O2186       O  0.89231158  0.95506582  0.87952468    -0.51700
C2187       C  0.86267000  0.91655967  0.88290864     0.71700
O2188       O  0.98059274  0.50538687  0.52643104    -0.60000
O2189       O  0.51774366  0.97755926  0.50429929    -0.52000
C2190       C  0.00094064  0.99452576  0.52969932     0.73500
O2191       O  0.93367825  0.54980004  0.98114044    -0.71400
O2192       O  0.93129743  0.54125605  0.92753162    -0.50100
C2193       C  0.92424062  0.55459920  0.95880726     0.74900
O2194       O  0.91507618  0.86471224  0.95058780    -0.66700
O2195       O  0.98081713  0.89627415  0.96087206    -0.53900
C2196       C  0.94137825  0.86658004  0.96179504     0.73200
Zr2197     Zr  0.91613404  0.90386679  0.92015988     2.77500
O2198       O  0.85125765  0.87459145  0.95748598    -0.97500
O2199       O  0.89016036  0.83361168  0.88208278    -0.78300
Zr2200     Zr  0.96724154  0.51865501  0.98266954     2.70100
O2201       O  0.90499228  0.99340327  0.52197875    -0.79500
O2202       O  0.50210742  0.58984534  0.52086598    -0.98600
Zr2203     Zr  0.52390954  0.96295487  0.94454339     2.21500
Zr2204     Zr  0.96284999  0.50390876  0.89337112     2.11100
O2205       O  0.92521463  0.97087316  0.93939351    -2.47300
O2206       O  0.95594090  0.95037272  0.96509754    -0.79300
O2207       O  0.95187873  0.93613367  0.87446795    -0.71500
O2208       O  0.53437141  0.53169792  0.96481059    -2.32500
O2209       O  0.98214692  0.91507280  0.90089123    -2.28700
O2210       O  0.50418351  0.55267106  0.93825219    -0.73300
H2211       H  0.54522930  0.53190724  0.85652518     0.78700
H2212       H  0.55069370  0.54898667  0.98313005     0.79800
H2213       H  0.89832664  0.96649484  0.94575086     0.82000
H2214       H  0.97872590  0.88807866  0.89495929     0.79600
H2215       H  0.58213378  0.62651356  0.98130609     0.42700
H2216       H  0.48177328  0.58617966  0.54108528     0.41600
H2217       H  0.88732600  0.96231112  0.51159723     0.41300
H2218       H  0.84138212  0.89221518  0.96048163     0.39200
H2219       H  0.89891380  0.83938136  0.85991536     0.42400
H2220       H  0.97463396  0.85855698  0.83251306     0.37200
H2221       H  0.60536754  0.00316273  0.83091325     0.43300
H2222       H  0.62921741  0.58884595  0.86215705     0.39700
H2223       H  0.83108904  0.84601082  0.94435180     0.44600
H2224       H  0.50578666  0.87673027  0.80206446     0.43300
H2225       H  0.65095788  0.62756987  0.89195783     0.43500
H2226       H  0.02682104  0.59473276  0.52444285     0.43800
O2227       O  0.56367345  0.93041927  0.60605746    -0.75000
O2228       O  0.55908268  0.93092150  0.65919631    -0.53900
C2229       C  0.56952417  0.92157886  0.62795514     0.78700
O2230       O  0.58630267  0.61920091  0.64884868    -0.59600
O2231       O  0.52348263  0.58915518  0.63347664    -0.52700
C2232       C  0.56247639  0.61917055  0.63599396     0.70700
O2233       O  0.62553247  0.57631607  0.70186137    -0.74200
O2234       O  0.59576230  0.01300681  0.71153371    -0.54800
C2235       C  0.62532237  0.55138027  0.71288803     0.76700
O2236       O  0.51779507  0.97659455  0.56373111    -0.59300
O2237       O  0.98303013  0.50665701  0.58632884    -0.52500
C2238       C  0.00130266  0.99423282  0.56265300     0.73300
Zr2239     Zr  0.53092196  0.96296111  0.60605679     2.54700
O2240       O  0.59629256  0.99406917  0.56948685    -0.79900
O2241       O  0.99626566  0.89382886  0.56728275    -0.93300
Zr2242     Zr  0.57969739  0.57219834  0.67494616     2.64700
O2243       O  0.64654868  0.59892883  0.63994981    -0.98300
O2244       O  0.60648951  0.64080621  0.71548353    -0.80300
O2245       O  0.56883216  0.00516494  0.65261604    -0.83700
O2246       O  0.54326080  0.53015924  0.62781828    -2.18400
O2247       O  0.87589021  0.91288765  0.64272296    -0.67100
O2248       O  0.90685011  0.97614331  0.62990042    -0.51700
C2249       C  0.87551682  0.93775439  0.63222063     0.71700
O2250       O  0.97636784  0.50057751  0.77570654    -0.60000
O2251       O  0.51422170  0.97054099  0.75274228    -0.52000
C2252       C  0.99224731  0.98325618  0.77826462     0.73500
O2253       O  0.94014815  0.55665406  0.73326375    -0.71400
O2254       O  0.94370315  0.55425065  0.67987941    -0.50100
C2255       C  0.93426302  0.56512365  0.71107731     0.74900
O2256       O  0.91751820  0.86414537  0.68695304    -0.66700
O2257       O  0.97849478  0.89523027  0.70581817    -0.53900
C2258       C  0.94057472  0.86387861  0.70042692     0.73200
Zr2259     Zr  0.92246676  0.91300479  0.66482589     2.77500
O2260       O  0.85502334  0.87995364  0.69875309    -0.97500
O2261       O  0.89500824  0.84696323  0.62142333    -0.78300
Zr2262     Zr  0.97113735  0.52240880  0.73398967     2.70100
O2263       O  0.90442323  0.99464168  0.77117190    -0.79500
O2264       O  0.50966887  0.59234908  0.77437171    -0.98600
Zr2265     Zr  0.52629296  0.96633377  0.69460161     2.21500
Zr2266     Zr  0.97513434  0.51721349  0.64522611     2.11100
O2267       O  0.93318857  0.98074100  0.68780509    -2.47300
O2268       O  0.95748788  0.95344940  0.71263986    -0.79300
O2269       O  0.96360997  0.95075580  0.62251371    -0.71500
O2270       O  0.53883855  0.53563963  0.71821711    -2.32500
O2271       O  0.98814196  0.92335997  0.64826654    -2.28700
O2272       O  0.51412099  0.56244152  0.69233263    -0.73300
H2273       H  0.55866646  0.54519486  0.61029683     0.78700
H2274       H  0.55369714  0.55067997  0.73728965     0.79800
H2275       H  0.90672960  0.97714360  0.69348936     0.82000
H2276       H  0.98406822  0.89591330  0.64075636     0.79600
H2277       H  0.59322941  0.63307998  0.73709883     0.42700
H2278       H  0.48788329  0.59109772  0.79294219     0.41600
H2279       H  0.88270619  0.97105624  0.75637184     0.41300
H2280       H  0.84731557  0.90022030  0.70499545     0.39200
H2281       H  0.89604903  0.85502285  0.60246517     0.42400
H2282       H  0.01403866  0.89976436  0.54599501     0.37200
H2283       H  0.61835698  0.00933270  0.58378299     0.43300
H2284       H  0.63988311  0.59236000  0.61785062     0.39700
H2285       H  0.83517637  0.85474776  0.68314062     0.44600
H2286       H  0.47013930  0.88699179  0.56511959     0.43300
H2287       H  0.66251882  0.63060971  0.64755902     0.43500
H2288       H  0.02988471  0.59232948  0.77934502     0.43800
C2289       C  0.58138747  0.65632008  0.62303375    -0.05200
C2290       C  0.56456013  0.68006089  0.63532354    -0.32600
C2291       C  0.58387025  0.71760617  0.62542132     0.36600
C2292       C  0.62013815  0.73133974  0.60206344    -0.05600
C2293       C  0.63549863  0.70590288  0.58845525    -0.32500
C2294       C  0.61673943  0.66899551  0.59915631     0.36500
H2295       H  0.53752888  0.67065014  0.65395428     0.16900
O2296       O  0.56918329  0.74250594  0.64101640    -0.60000
H2297       H  0.66300372  0.71548300  0.57029308     0.16900
O2298       O  0.63289176  0.64528825  0.58597196    -0.60100
H2299       H  0.65471458  0.65841406  0.59993660     0.43900
H2300       H  0.54253663  0.72686944  0.63211295     0.43800
C2301       C  0.83490584  0.92055346  0.62427119    -0.05200
C2302       C  0.79970685  0.90032314  0.64679526    -0.32600
C2303       C  0.75963063  0.87770813  0.63889896     0.36600
C2304       C  0.75410438  0.87458632  0.60785991    -0.05600
C2305       C  0.78922403  0.89700700  0.58593603    -0.32500
C2306       C  0.82976322  0.92002238  0.59403058     0.36500
H2307       H  0.80331540  0.90105713  0.67036805     0.16900
O2308       O  0.72586309  0.85718256  0.66118936    -0.60000
H2309       H  0.78518340  0.89504415  0.56208741     0.16900
O2310       O  0.86384442  0.93996388  0.57177244    -0.60100
H2311       H  0.86689744  0.91706793  0.55614054     0.43900
H2312       H  0.71824245  0.87761408  0.67370452     0.43800
C2313       C  0.62616216  0.85452716  0.60014418    -0.05200
C2314       C  0.63794340  0.88186887  0.58111046    -0.32600
C2315       C  0.61889808  0.90308227  0.58903488     0.36600
C2316       C  0.58853195  0.89787877  0.61688089    -0.05600
C2317       C  0.57666255  0.87020551  0.63554246    -0.32500
C2318       C  0.59504779  0.84861385  0.62739887     0.36500
H2319       H  0.66228088  0.88715428  0.56037098     0.16900
O2320       O  0.63184111  0.93056037  0.57060451    -0.60000
H2321       H  0.55325464  0.86559031  0.65695614     0.16900
O2322       O  0.58455749  0.82420923  0.64769499    -0.60100
H2323       H  0.55512206  0.79922142  0.64477820     0.43900
H2324       H  0.61587350  0.91197643  0.55130009     0.43800
C2325       C  0.56075830  0.63859773  0.86529668    -0.05200
C2326       C  0.54638786  0.66467739  0.87938376    -0.32600
C2327       C  0.56673503  0.70262537  0.86954464     0.36600
C2328       C  0.60116024  0.71404617  0.84439051    -0.05600
C2329       C  0.61256832  0.68532934  0.82823232    -0.32500
C2330       C  0.59296425  0.64815519  0.83879828     0.36500
H2331       H  0.52126887  0.65720600  0.89964502     0.16900
O2332       O  0.55470234  0.72971368  0.88647362    -0.60000
H2333       H  0.63843036  0.69304234  0.80858980     0.16900
O2334       O  0.60670052  0.62230455  0.82407475    -0.60100
H2335       H  0.58692151  0.59848486  0.80784563     0.43900
H2336       H  0.57250057  0.74950711  0.90466288     0.43800
C2337       C  0.82146091  0.89494403  0.87259573    -0.05200
C2338       C  0.81832641  0.90310473  0.84580308    -0.32600
C2339       C  0.77912063  0.88089628  0.83535613     0.36600
C2340       C  0.74257810  0.85008192  0.85174514    -0.05600
C2341       C  0.74585468  0.84306409  0.87896512    -0.32500
C2342       C  0.78455685  0.86490001  0.88932708     0.36500
H2343       H  0.84628864  0.92597611  0.83253312     0.16900
O2344       O  0.77700595  0.88806530  0.80834625    -0.60000
H2345       H  0.71800375  0.82062390  0.89262128     0.16900
O2346       O  0.78570118  0.85769243  0.91675081    -0.60100
H2347       H  0.78276341  0.83009526  0.90894540     0.43900
H2348       H  0.78058571  0.91598916  0.81628722     0.43800
C2349       C  0.62419884  0.84926313  0.84792301    -0.05200
C2350       C  0.62918639  0.87816097  0.87878926    -0.32600
C2351       C  0.61092026  0.90027939  0.88882879     0.36600
C2352       C  0.58690693  0.89369245  0.86779892    -0.05600
C2353       C  0.58286666  0.86545406  0.83635337    -0.32500
C2354       C  0.60094250  0.84292421  0.82652913     0.36500
H2355       H  0.64672849  0.88298661  0.89560623     0.16900
O2356       O  0.61626887  0.92778027  0.91952565    -0.60000
H2357       H  0.56477509  0.85994131  0.81966104     0.16900
O2358       O  0.59638940  0.81545748  0.79587669    -0.60100
H2359       H  0.56848939  0.78826241  0.79832977     0.43900
H2360       H  0.64624407  0.95226239  0.91812584     0.43800
C2361       C  0.91529044  0.58905641  0.72184241    -0.05200
C2362       C  0.88829720  0.58655699  0.75158822    -0.32600
C2363       C  0.86820277  0.60699387  0.76082096     0.36600
C2364       C  0.87538171  0.63069046  0.74039068    -0.05600
C2365       C  0.90331717  0.63423585  0.71132103    -0.32500
C2366       C  0.92306568  0.61375997  0.70194084     0.36500
H2367       H  0.88196696  0.56790311  0.76731828     0.16900
O2368       O  0.84142638  0.60330732  0.78959559    -0.60000
H2369       H  0.90915304  0.65219219  0.69518603     0.16900
O2370       O  0.95067891  0.61897610  0.67354255    -0.60100
H2371       H  0.93303469  0.59940750  0.65523588     0.43900
H2372       H  0.85904440  0.62824832  0.80665759     0.43800
C2373       C  0.87939045  0.74798581  0.73011914    -0.05200
C2374       C  0.90926166  0.78731776  0.74886131    -0.32600
C2375       C  0.93009844  0.82551396  0.73922672     0.36600
C2376       C  0.92158408  0.82434428  0.71023676    -0.05600
C2377       C  0.89292822  0.78474840  0.69092842    -0.32500
C2378       C  0.87189701  0.74677534  0.70064424     0.36500
H2379       H  0.91539773  0.78852555  0.77148493     0.16900
O2380       O  0.95742881  0.86386817  0.75889870    -0.60000
H2381       H  0.88662053  0.78321456  0.66824052     0.16900
O2382       O  0.84484119  0.70837960  0.68074899    -0.60100
H2383       H  0.81949990  0.70748083  0.68382814     0.43900
H2384       H  0.94014015  0.87368472  0.77451192     0.43800
C2385       C  0.66307254  0.57007028  0.72681832    -0.05200
C2386       C  0.68386242  0.55012973  0.71486720    -0.32600
C2387       C  0.72366046  0.57129390  0.72348813     0.36600
C2388       C  0.74246024  0.61244444  0.74538174    -0.05600
C2389       C  0.71941137  0.63014242  0.75973201    -0.32500
C2390       C  0.68075087  0.60998633  0.74981649     0.36500
H2391       H  0.67067185  0.51954033  0.69686284     0.16900
O2392       O  0.74554649  0.55356540  0.70758554    -0.60000
H2393       H  0.73277341  0.66130498  0.77700865     0.16900
O2394       O  0.66082347  0.62997710  0.76214680    -0.60100
H2395       H  0.67639159  0.65335047  0.75051866     0.43900
H2396       H  0.73274075  0.52966225  0.71788417     0.43800
C2397       C  0.90451818  0.57776935  0.96949627    -0.05200
C2398       C  0.91158228  0.60076619  0.94859157    -0.32600
C2399       C  0.89352498  0.62287438  0.95745262     0.36600
C2400       C  0.86747736  0.62203930  0.98752566    -0.05600
C2401       C  0.85990816  0.59892875  0.00848361    -0.32500
C2402       C  0.87878514  0.57739404  0.99991113     0.36500
H2403       H  0.93151016  0.60193125  0.92528627     0.16900
O2404       O  0.90129723  0.64504496  0.93635958    -0.60000
H2405       H  0.83953883  0.59777086  0.03152345     0.16900
O2406       O  0.87059319  0.55480841  0.02080900    -0.60100
H2407       H  0.89068765  0.57629831  0.03727270     0.43900
H2408       H  0.87642476  0.62590363  0.92425345     0.43800
C2409       C  0.92472596  0.83107716  0.97581541    -0.05200
C2410       C  0.94003230  0.80588416  0.96158885    -0.32600
C2411       C  0.91936871  0.76698426  0.96991340     0.36600
C2412       C  0.88281360  0.75300699  0.99296545    -0.05600
C2413       C  0.87260941  0.78318276  0.51069852    -0.32500
C2414       C  0.89055000  0.81918794  0.00072398     0.36500
H2415       H  0.96641289  0.81494567  0.94235409     0.16900
O2416       O  0.93273288  0.74104808  0.95288930    -0.60000
H2417       H  0.84554816  0.77359849  0.52929821     0.16900
O2418       O  0.87798825  0.84671175  0.51732195    -0.60100
H2419       H  0.89493122  0.86796490  0.53582830     0.43900
H2420       H  0.95842894  0.75431316  0.96223086     0.43800
C2421       C  0.66373486  0.57119751  0.96707744    -0.05200
C2422       C  0.68778690  0.55516963  0.95038223    -0.32600
C2423       C  0.72746659  0.57616453  0.95890698     0.36600
C2424       C  0.74304601  0.61325435  0.98514004    -0.05600
C2425       C  0.72046245  0.63134165  0.50313776    -0.32500
C2426       C  0.67890622  0.60789999  0.99327852     0.36500
H2427       H  0.67672456  0.52767802  0.92950014     0.16900
O2428       O  0.75218773  0.56256369  0.93956220    -0.60000
H2429       H  0.73163813  0.65969246  0.52338239     0.16900
O2430       O  0.65799133  0.62679289  0.51021873    -0.60100
H2431       H  0.66935763  0.65068423  0.50043846     0.43900
H2432       H  0.73950073  0.53488160  0.94447401     0.43800
loop_ 
_geom_bond_atom_site_label_1 
_geom_bond_atom_site_label_2 
_geom_bond_distance 
_geom_bond_site_symmetry_2 
_ccdc_geom_bond_type 
C1            C2   1.402       .  A
C1            C6   1.400       .  A
C1          C576   1.472       .  S
C2            C3   1.405       .  A
C2            H7   1.083       .  S
C3            C4   1.405       .  A
C3          C600   1.486       .  S
C4            C5   1.405       .  A
C4            H8   1.084       .  S
C5            C6   1.400       .  A
C5          C588   1.487       .  S
C6            H9   1.083       .  S
C10          C11   1.406       .  A
C10          C15   1.410       .  A
C10         C236   1.481       .  S
C11          C12   1.395       .  A
C11          H16   1.084       .  S
C12          C13   1.395       .  A
C12         C245   1.474       .  S
C13          C14   1.403       .  A
C13          H17   1.084       .  S
C14          C15   1.409       .  A
C14         C260   1.489       .  S
C15          H18   1.082       .  S
C19          C20   1.404       .  A
C19          C24   1.404       .  A
C19         C221   1.471       .  S
C20          C21   1.399       .  A
C20          H25   1.084       .  S
C21          C22   1.403       .  A
C21         C212   1.484       .  S
C22          C23   1.405       .  A
C22          H26   1.083       .  S
C23          C24   1.405       .  A
C23         C200   1.491       .  S
C24          H27   1.083       .  S
C28          C29   1.403       .  A
C28          C33   1.402       .  A
C28         C185   1.469       .  S
C29          C30   1.404       .  A
C29          H34   1.083       .  S
C30          C31   1.402       .  A
C30         C164   1.483       .  S
C31          C32   1.400       .  A
C31          H35   1.084       .  S
C32          C33   1.396       .  A
C32         C176   1.472       .  S
C33          H36   1.084       .  S
O37         Zr49   2.450       .  S
O37          C39   1.289       .  A
O38         Zr75   2.402       .  S
O38          C39   1.283       .  A
C39         C224   1.483       .  S
O40         Zr52   2.447       .  S
O40          C42   1.289       .  A
O41       Zr1292   2.418   1_455  S
O41          C42   1.284       .  A
C42         C197   1.469       .  S
O43         Zr52   2.436       .  S
O43          C45   1.286       .  A
O44         Zr75   2.421       .  S
O44         C653   1.285       .  A
C45         C293   1.464       .  S
C45         O652   1.284       .  A
O46         Zr49   2.459       .  S
O46        C1264   1.293   1_455  A
O47         Zr76   2.406   1_565  S
O47         C656   1.283       .  A
C48         C124   1.468       .  S
C48        O1262   1.292       .  A
C48         O655   1.284       .  A
Zr49         O50   2.434       .  S
Zr49       O1267   2.435   1_455  S
Zr49         O55   2.378       .  S
Zr49        O664   2.368       .  S
Zr49       O1295   2.376   1_455  S
Zr49       O1297   2.375   1_455  S
O50          H93   0.990       .  S
O51       Zr1265   2.436       .  S
O51          H92   0.990       .  S
O51        H1312   0.990       .  S
Zr52         O53   2.436       .  S
Zr52         O54   2.435       .  S
Zr52         O56   2.365       .  S
Zr52         O80   2.369       .  S
Zr52         O82   2.367       .  S
Zr52        O663   2.381       .  S
O53          H94   0.991       .  S
O53          H97   0.990       .  S
O54          H87   0.990       .  S
O55         Zr75   2.377       .  S
O55        Zr660   2.377       .  S
O56        Zr657   2.369   1_545  S
O56       Zr1292   2.386   1_455  S
O56          H83   0.965       .  S
O57         Zr69   2.430       .  S
O57          C59   1.286       .  A
O58        Zr684   2.430       .  S
O58          C59   1.287       .  A
C59         C209   1.484       .  S
O60        Zr376   2.451   1_554  S
O60         C670   1.291   1_545  A
O61        Zr379   2.410   1_554  S
O61        C1278   1.284   1_455  A
C62         C110   1.464       .  S
C62         O668   1.289       .  A
C62        O1277   1.284       .  A
O63         Zr72   2.441       .  S
O63          C65   1.288       .  A
O64         Zr76   2.409       .  S
O64          C65   1.285       .  A
C65         C269   1.477       .  S
O66         Zr69   2.435       .  S
O66          C68   1.286       .  A
O67       Zr1291   2.412       .  S
O67          C68   1.283       .  A
C68         C281   1.463       .  S
Zr69         O70   2.436       .  S
Zr69         O71   2.435       .  S
Zr69         O77   2.371       .  S
Zr69         O78   2.363       .  S
Zr69         O81   2.363       .  S
Zr69         O79   2.372       .  S
O70          H90   0.990       .  S
O70          H95   0.990       .  S
O71          H91   0.990       .  S
Zr72        O364   2.439       .  S
Zr72        O985   2.434   1_545  S
Zr72       O1594   2.436       .  S
Zr72        O686   2.369   1_545  S
Zr72        O685   2.373   1_545  S
Zr72       O1298   2.372       .  S
Zr72       O1296   2.371       .  S
O73        Zr984   2.432   1_554  S
O73          H89   0.990       .  S
O74       Zr1592   2.435   1_454  S
O74          H88   0.990   1_455  S
O74        H1314   0.990       .  S
Zr75        O365   2.405       .  S
Zr75       O1283   2.420   1_455  S
Zr75       O1294   2.371   1_455  S
Zr75        O688   2.381       .  S
Zr75       O1297   2.379   1_455  S
Zr76       O1257   2.427       .  S
Zr76        O666   2.430   1_545  S
Zr76       O1272   2.382       .  S
Zr76        O685   2.383   1_545  S
Zr76        O687   2.384   1_545  S
Zr76       O1298   2.382       .  S
O77        Zr680   2.373       .  S
O77        Zr684   2.383       .  S
O77          H85   0.966       .  S
O78        Zr680   2.367       .  S
O78       Zr1291   2.376       .  S
O79       Zr1265   2.374       .  S
O79        Zr684   2.381       .  S
O80       Zr1288   2.371   1_455  S
O80        Zr683   2.382   1_545  S
O80          H84   0.965       .  S
O81       Zr1265   2.373       .  S
O81       Zr1291   2.377       .  S
O81          H86   0.965       .  S
O82       Zr1288   2.373   1_455  S
O82       Zr1292   2.379   1_455  S
H96        O1267   0.991   1_455  S
H98        O1290   0.991       .  S
O99        Zr111   2.447       .  S
O99         C101   1.289       .  A
O100       Zr137   2.392       .  S
O100        C101   1.282       .  A
C101        C188   1.475       .  S
O102       Zr114   2.449       .  S
O102        C104   1.289       .  A
O103      Zr1354   2.410   1_455  S
O103        C104   1.283       .  A
C104        C161   1.464       .  S
O105       Zr114   2.448       .  S
O105        C107   1.289       .  A
O106       Zr137   2.412       .  S
O106        C715   1.283       .  A
C107        C257   1.473       .  S
C107        O714   1.285       .  A
O108       Zr111   2.445       .  S
O108       C1326   1.289   1_455  A
O109       Zr138   2.418       .  S
O109        C718   1.285   1_545  A
C110       O1324   1.288       .  A
C110        O717   1.284       .  A
Zr111       O112   2.435       .  S
Zr111      O1329   2.436   1_455  S
Zr111       O117   2.376       .  S
Zr111       O726   2.370       .  S
Zr111      O1357   2.376   1_455  S
Zr111      O1359   2.368   1_455  S
O112        H155   0.990       .  S
O113      Zr1327   2.437       .  S
O113        H154   0.990       .  S
O113       H1374   0.991       .  S
Zr114       O115   2.433       .  S
Zr114       O116   2.437       .  S
Zr114       O118   2.375       .  S
Zr114       O142   2.376       .  S
Zr114       O144   2.372       .  S
Zr114       O725   2.373       .  S
O115        H156   0.990       .  S
O115        H159   0.990       .  S
O116        H149   0.990       .  S
O117       Zr137   2.380       .  S
O117       Zr722   2.373       .  S
O118       Zr719   2.363   1_545  S
O118      Zr1354   2.380   1_455  S
O118        H145   0.965       .  S
O119       Zr131   2.417       .  S
O119        C121   1.283       .  A
O120       Zr746   2.433       .  S
O120        C121   1.286       .  A
C121        C173   1.470       .  S
O122       Zr134   2.448       .  S
O122        C732   1.290   1_545  A
O123       Zr137   2.404       .  S
O123       C1340   1.282   1_455  A
C124        O730   1.291       .  A
C124       O1339   1.283       .  A
O125       Zr134   2.445       .  S
O125        C127   1.288       .  A
O126       Zr138   2.408       .  S
O126        C127   1.284       .  A
C127        C233   1.480       .  S
O128       Zr131   2.420       .  S
O128        C130   1.284       .  A
O129      Zr1353   2.426       .  S
O129        C130   1.286       .  A
C130        C248   1.471       .  S
Zr131       O132   2.437       .  S
Zr131       O133   2.435       .  S
Zr131       O139   2.369       .  S
Zr131       O140   2.366       .  S
Zr131       O143   2.364       .  S
Zr131       O141   2.366       .  S
O132        H152   0.991       .  S
O132        H157   0.990       .  S
O133        H153   0.990       .  S
Zr134       O743   2.434       .  S
Zr134      O1352   2.439       .  S
Zr134       O748   2.369   1_545  S
Zr134       O747   2.377   1_545  S
Zr134      O1360   2.378       .  S
Zr134      O1358   2.365       .  S
O135       Zr742   2.435       .  S
O135        H151   0.990       .  S
O136      Zr1350   2.440   1_455  S
O136        H150   0.990   1_455  S
O136       H1376   0.991       .  S
Zr137      O1345   2.415   1_455  S
Zr137      O1356   2.372   1_455  S
Zr137       O750   2.381       .  S
Zr137      O1359   2.379   1_455  S
Zr138      O1319   2.406       .  S
Zr138       O728   2.434   1_545  S
Zr138      O1334   2.382       .  S
Zr138       O747   2.380   1_545  S
Zr138       O749   2.376   1_545  S
Zr138      O1360   2.388       .  S
O139       Zr742   2.373       .  S
O139       Zr746   2.383       .  S
O139        H147   0.965       .  S
O140       Zr742   2.368       .  S
O140      Zr1353   2.375       .  S
O141      Zr1327   2.374       .  S
O141       Zr746   2.376       .  S
O142      Zr1350   2.368   1_455  S
O142       Zr745   2.383   1_545  S
O142        H146   0.966       .  S
O143      Zr1327   2.372       .  S
O143      Zr1353   2.379       .  S
O143        H148   0.965       .  S
O144      Zr1350   2.375   1_455  S
O144      Zr1354   2.382   1_455  S
H158       O1329   0.991       .  S
H160       O1352   0.991       .  S
C161        C162   1.399       .  A
C161        C166   1.404       .  A
C162        C163   1.400       .  A
C162        H167   1.084       .  S
C163        C164   1.413       .  A
C163        O168   1.372       .  S
C164        C165   1.406       .  A
C165        C166   1.397       .  A
C165        H169   1.084       .  S
C166        O170   1.372       .  S
O168        H172   0.991       .  S
O170        H171   0.992       .  S
C173        C174   1.402       .  A
C173        C178   1.409       .  A
C174        C175   1.388       .  A
C174        H179   1.084       .  S
C175        C176   1.406       .  A
C175        O180   1.373       .  S
C176        C177   1.405       .  A
C177        C178   1.405       .  A
C177        H181   1.083       .  S
C178        O182   1.371       .  S
O180        H184   0.992       .  S
O182        H183   0.991       .  S
C185        C186   1.401       .  A
C185        C190   1.406       .  A
C186        C187   1.401       .  A
C186        H191   1.083       .  S
C187        C188   1.412       .  A
C187        O192   1.371       .  S
C188        C189   1.406       .  A
C189        C190   1.391       .  A
C189        H193   1.084       .  S
C190        O194   1.373       .  S
O192        H196   0.992       .  S
O194        H195   0.992       .  S
C197        C198   1.400       .  A
C197        C202   1.405       .  A
C198        C199   1.402       .  A
C198        H203   1.084       .  S
C199        C200   1.417       .  A
C199        O204   1.371       .  S
C200        C201   1.407       .  A
C201        C202   1.397       .  A
C201        H205   1.084       .  S
C202        O206   1.372       .  S
O204        H208   0.992       .  S
O206        H207   0.992       .  S
C209        C210   1.408       .  A
C209        C214   1.411       .  A
C210        C211   1.407       .  A
C210        H215   1.084       .  S
C211        C212   1.410       .  A
C211        O216   1.372       .  S
C212        C213   1.401       .  A
C213        C214   1.391       .  A
C213        H217   1.084       .  S
C214        O218   1.371       .  S
O216        H220   0.992       .  S
O218        H219   0.992       .  S
C221        C222   1.398       .  A
C221        C226   1.404       .  A
C222        C223   1.392       .  A
C222        H227   1.084       .  S
C223        C224   1.415       .  A
C223        O228   1.372       .  S
C224        C225   1.409       .  A
C225        C226   1.403       .  A
C225        H229   1.083       .  S
C226        O230   1.371       .  S
O228        H232   0.992       .  S
O230        H231   0.991       .  S
C233        C234   1.408       .  A
C233        C238   1.410       .  A
C234        C235   1.405       .  A
C234        H239   1.083       .  S
C235        C236   1.409       .  A
C235        O240   1.371       .  S
C236        C237   1.402       .  A
C237        C238   1.391       .  A
C237        H241   1.084       .  S
C238        O242   1.372       .  S
O240        H244   0.991       .  S
O242        H243   0.992       .  S
C245        C246   1.403       .  A
C245        C250   1.407       .  A
C246        C247   1.403       .  A
C246        H251   1.084       .  S
C247        C248   1.409       .  A
C247        O252   1.371       .  S
C248        C249   1.402       .  A
C249        C250   1.393       .  A
C249        H253   1.084       .  S
C250        O254   1.373       .  S
O252        H256   0.992       .  S
O254        H255   0.992       .  S
C257        C258   1.403       .  A
C257        C262   1.404       .  A
C258        C259   1.403       .  A
C258        H263   1.084       .  S
C259        C260   1.413       .  A
C259        O264   1.371       .  S
C260        C261   1.407       .  A
C261        C262   1.397       .  A
C261        H265   1.084       .  S
C262        O266   1.372       .  S
O264        H268   0.991       .  S
O266        H267   0.992       .  S
C269        C270   1.404       .  A
C269        C274   1.413       .  A
C270        C271   1.391       .  A
C270        H275   1.084       .  S
C271        C272   1.405       .  A
C271        O276   1.372       .  S
C272        C273   1.401       .  A
C272        C305   1.468       .  S
C273        C274   1.403       .  A
C273        H277   1.083       .  S
C274        O278   1.372       .  S
O276        H280   0.992       .  S
O278        H279   0.991       .  S
C281        C282   1.399       .  A
C281        C286   1.404       .  A
C282        C283   1.399       .  A
C282        H287   1.084       .  S
C283        C284   1.414       .  A
C283        O288   1.372       .  S
C284        C589   1.405       .  A
C284        C309   1.482       .  S
C285        C588   1.406   1_554  A
C285        C590   1.396   1_554  A
C285        H289   1.084       .  S
C286        C589   1.396       .  A
C286        O594   1.372       .  S
O288        H292   0.992       .  S
O290        C590   1.372   1_554  S
O290        H291   0.991       .  S
C293        C294   1.399       .  A
C293        C298   1.404       .  A
C294        C295   1.399       .  A
C294        H299   1.083       .  S
C295        C296   1.412       .  A
C295        O300   1.372       .  S
C296        C601   1.406       .  A
C296        C307   1.481       .  S
C297        C600   1.408   1_554  A
C297        C602   1.398   1_554  A
C297        H301   1.084       .  S
C298        C601   1.397       .  A
C298        O606   1.372       .  S
O300        H304   0.992       .  S
O302        C602   1.372   1_554  S
O302        H303   0.992   1_554  S
C305        C306   1.400       .  A
C305        C310   1.401       .  A
C306        C307   1.403       .  A
C306        H311   1.083       .  S
C307        C308   1.402       .  A
C308        C309   1.403       .  A
C308        H312   1.084       .  S
C309        C310   1.400       .  A
C310        H313   1.083       .  S
C314        C315   1.407       .  A
C314        C319   1.410       .  A
C314        C540   1.484       .  S
C315        C316   1.396       .  A
C315        H320   1.084       .  S
C316        C317   1.397       .  A
C316        C549   1.475       .  S
C317        C318   1.403       .  A
C317        H321   1.084       .  S
C318        C319   1.407       .  A
C318        C564   1.490       .  S
C319        H322   1.082       .  S
C323        C324   1.403       .  A
C323        C328   1.404       .  A
C323        C525   1.473       .  S
C324        C325   1.400       .  A
C324        H329   1.084       .  S
C325        C326   1.403       .  A
C325        C516   1.484       .  S
C326        C327   1.405       .  A
C326        H330   1.084       .  S
C327        C328   1.405       .  A
C327        C504   1.488       .  S
C328        H331   1.083       .  S
C332        C333   1.402       .  A
C332        C337   1.401       .  A
C332        C489   1.466       .  S
C333        C334   1.403       .  A
C333        H338   1.084       .  S
C334        C335   1.400       .  A
C334        C468   1.480       .  S
C335        C336   1.400       .  A
C335        H339   1.085       .  S
C336        C337   1.396       .  A
C336        C480   1.469       .  S
C337        H340   1.085       .  S
O341       Zr353   2.455       .  S
O341        C343   1.290       .  A
O342       Zr379   2.406       .  S
O342        C343   1.283       .  A
C343        C528   1.486       .  S
O344       Zr356   2.455       .  S
O344        C346   1.290       .  A
O345      Zr1596   2.411   1_455  S
O345        C346   1.282       .  A
C346        C501   1.467       .  S
O347       Zr356   2.450       .  S
O347        C349   1.289       .  A
O348       Zr379   2.405       .  S
O348        C957   1.282       .  A
C349        C597   1.466       .  S
C349        O956   1.282       .  A
O350       Zr353   2.457       .  S
O350       C1568   1.292   1_455  A
O351       Zr380   2.410   1_565  S
O351        C960   1.284       .  A
C352        C428   1.466       .  S
C352       O1566   1.293       .  A
C352        O959   1.282       .  A
Zr353       O354   2.435       .  S
Zr353      O1571   2.434   1_455  S
Zr353       O359   2.377       .  S
Zr353       O968   2.368       .  S
Zr353      O1599   2.378   1_455  S
Zr353      O1601   2.376   1_455  S
O354        H397   0.990       .  S
O355      Zr1569   2.431       .  S
O355        H396   0.990       .  S
O355       H1616   0.991       .  S
Zr356       O357   2.437       .  S
Zr356       O358   2.434       .  S
Zr356       O360   2.366       .  S
Zr356       O967   2.379   1_545  S
Zr356       O384   2.373       .  S
Zr356       O386   2.372       .  S
O357        H398   0.991       .  S
O357        H401   0.990       .  S
O358        H391   0.990       .  S
O359       Zr964   2.379       .  S
O359       Zr379   2.379       .  S
O360       Zr961   2.367   1_545  S
O360      Zr1596   2.387   1_455  S
O360        H387   0.965       .  S
O361       Zr373   2.422       .  S
O361        C363   1.284       .  A
O362       Zr988   2.438       .  S
O362        C363   1.288       .  A
C363        C513   1.484       .  S
O364        C974   1.288   1_545  A
O365       C1582   1.283   1_455  A
C366        C414   1.469       .  S
C366        O972   1.289       .  A
C366       O1581   1.286       .  A
O367       Zr376   2.440       .  S
O367        C369   1.287       .  A
O368       Zr380   2.418       .  S
O368        C369   1.287       .  A
C369        C573   1.480       .  S
O370       Zr373   2.429       .  S
O370        C372   1.285       .  A
O371      Zr1595   2.419       .  S
O371        C372   1.284       .  A
C372        C585   1.465       .  S
Zr373       O374   2.437       .  S
Zr373       O375   2.435       .  S
Zr373       O381   2.369       .  S
Zr373       O382   2.360       .  S
Zr373       O385   2.368       .  S
Zr373       O383   2.374       .  S
O374        H394   0.990       .  S
O374        H399   0.990       .  S
O375        H395   0.990       .  S
Zr376       O681   2.432   1_546  S
Zr376      O1290   2.435   1_556  S
Zr376       O990   2.366   1_545  S
Zr376       O989   2.375   1_545  S
Zr376      O1602   2.374       .  S
Zr376      O1600   2.369       .  S
O377       Zr680   2.433       .  S
O377        H393   0.990       .  S
O378      Zr1288   2.436   1_455  S
O378        H392   0.990   1_455  S
O378       H1618   0.990       .  S
Zr379      O1587   2.413   1_455  S
Zr379      O1598   2.369   1_455  S
Zr379       O992   2.381       .  S
Zr379      O1601   2.377   1_455  S
Zr380      O1561   2.419       .  S
Zr380       O970   2.436   1_545  S
Zr380      O1576   2.386       .  S
Zr380       O989   2.380   1_545  S
Zr380       O991   2.382   1_545  S
Zr380      O1602   2.382       .  S
O381       Zr984   2.372       .  S
O381       Zr988   2.375       .  S
O381        H389   0.966       .  S
O382       Zr984   2.367       .  S
O382      Zr1595   2.370       .  S
O383      Zr1569   2.380       .  S
O383       Zr988   2.382       .  S
O384      Zr1592   2.372   1_455  S
O384       Zr987   2.382   1_545  S
O384        H388   0.965       .  S
O385      Zr1569   2.376       .  S
O385      Zr1595   2.378       .  S
O385        H390   0.966       .  S
O386      Zr1592   2.378   1_455  S
O386      Zr1596   2.382   1_455  S
H400       O1571   0.991   1_455  S
H402       O1594   0.990       .  S
O403       Zr415   2.437       .  S
O403        C405   1.286       .  A
O404       Zr441   2.402       .  S
O404        C405   1.284       .  A
C405        C492   1.476       .  S
O406       Zr418   2.446       .  S
O406        C408   1.288       .  A
O407      Zr1658   2.416   1_455  S
O407        C408   1.283       .  A
C408        C465   1.465       .  S
O409       Zr418   2.441       .  S
O409        C411   1.288       .  A
O410       Zr441   2.419       .  S
O410       C1019   1.285       .  A
C411        C561   1.474       .  S
C411       O1018   1.286       .  A
O412       Zr415   2.442       .  S
O412       C1630   1.289       .  A
O413       Zr442   2.413       .  S
O413       C1022   1.285   1_545  A
C414       O1628   1.289       .  A
C414       O1021   1.284       .  A
Zr415       O416   2.434       .  S
Zr415      O1633   2.437   1_455  S
Zr415       O421   2.379       .  S
Zr415      O1030   2.370       .  S
Zr415      O1661   2.372   1_455  S
Zr415      O1663   2.367   1_455  S
O416        H459   0.989       .  S
O417      Zr1631   2.436       .  S
O417        H458   0.990       .  S
O417       H1678   0.991       .  S
Zr418       O419   2.435       .  S
Zr418       O420   2.435       .  S
Zr418       O422   2.370       .  S
Zr418      O1029   2.374       .  S
Zr418       O446   2.376       .  S
Zr418       O448   2.376       .  S
O419        H460   0.990       .  S
O419        H463   0.990       .  S
O420        H453   0.990       .  S
O421      Zr1026   2.373       .  S
O421       Zr441   2.378       .  S
O422      Zr1023   2.370   1_545  S
O422      Zr1658   2.384   1_455  S
O422        H449   0.965       .  S
O423       Zr435   2.419       .  S
O423        C425   1.284       .  A
O424      Zr1050   2.421       .  S
O424        C425   1.284       .  A
C425        C477   1.464       .  S
O426       Zr438   2.452   1_565  S
O426       C1036   1.290       .  A
O427       Zr441   2.400       .  S
O427       C1644   1.282   1_455  A
C428       O1034   1.292       .  A
C428       O1643   1.281       .  A
O429       Zr438   2.444       .  S
O429        C431   1.288       .  A
O430       Zr442   2.411       .  S
O430        C431   1.285       .  A
C431        C537   1.478       .  S
O432       Zr435   2.422       .  S
O432        C434   1.285       .  A
O433      Zr1657   2.415       .  S
O433        C434   1.284       .  A
C434        C552   1.470       .  S
Zr435       O436   2.436       .  S
Zr435       O437   2.433       .  S
Zr435       O443   2.368       .  S
Zr435       O444   2.364       .  S
Zr435       O447   2.366       .  S
Zr435       O445   2.368       .  S
O436        H456   0.990       .  S
O436        H461   0.990       .  S
O437        H457   0.990       .  S
Zr438      O1047   2.436   1_545  S
Zr438      O1656   2.439       .  S
Zr438      O1052   2.370   1_545  S
Zr438      O1051   2.372   1_545  S
Zr438      O1664   2.382       .  S
Zr438      O1662   2.367       .  S
O439      Zr1046   2.436       .  S
O439        H455   0.990       .  S
O440      Zr1654   2.437   1_455  S
O440        H454   0.990   1_455  S
O440       H1680   0.990       .  S
Zr441      O1649   2.416   1_455  S
Zr441      O1660   2.375   1_455  S
Zr441      O1054   2.380       .  S
Zr441      O1663   2.377   1_455  S
Zr442      O1623   2.420       .  S
Zr442      O1032   2.428   1_545  S
Zr442      O1638   2.382       .  S
Zr442      O1051   2.383   1_545  S
Zr442      O1053   2.381   1_545  S
Zr442      O1664   2.384       .  S
O443      Zr1046   2.373       .  S
O443      Zr1050   2.384       .  S
O443        H451   0.965       .  S
O444      Zr1046   2.369       .  S
O444      Zr1657   2.376       .  S
O445      Zr1631   2.373       .  S
O445      Zr1050   2.379       .  S
O446      Zr1654   2.370   1_455  S
O446      Zr1049   2.378   1_545  S
O446        H450   0.965       .  S
O447      Zr1631   2.366       .  S
O447      Zr1657   2.379       .  S
O447        H452   0.964       .  S
O448      Zr1654   2.381   1_455  S
O448      Zr1658   2.381   1_455  S
H462       O1633   0.991   1_455  S
H464       O1656   0.990       .  S
C465        C466   1.399       .  A
C465        C470   1.405       .  A
C466        C467   1.400       .  A
C466        H471   1.084       .  S
C467        C468   1.412       .  A
C467        O472   1.372       .  S
C468        C469   1.405       .  A
C469        C470   1.399       .  A
C469        H473   1.084       .  S
C470        O474   1.372       .  S
O472        H476   0.991       .  S
O474        H475   0.992       .  S
C477        C478   1.400       .  A
C477        C482   1.408       .  A
C478        C479   1.387       .  A
C478        H483   1.084       .  S
C479        C480   1.406       .  A
C479        O484   1.373       .  S
C480        C481   1.404       .  A
C481        C482   1.404       .  A
C481        H485   1.083       .  S
C482        O486   1.371       .  S
O484        H488   0.992       .  S
O486        H487   0.992       .  S
C489        C490   1.400       .  A
C489        C494   1.404       .  A
C490        C491   1.401       .  A
C490        H495   1.083       .  S
C491        C492   1.414       .  A
C491        O496   1.372       .  S
C492        C493   1.405       .  A
C493        C494   1.389       .  A
C493        H497   1.084       .  S
C494        O498   1.372       .  S
O496        H500   0.992       .  S
O498        H499   0.992       .  S
C501        C502   1.399       .  A
C501        C506   1.404       .  A
C502        C503   1.400       .  A
C502        H507   1.084       .  S
C503        C504   1.416       .  A
C503        O508   1.372       .  S
C504        C505   1.407       .  A
C505        C506   1.398       .  A
C505        H509   1.084       .  S
C506        O510   1.371       .  S
O508        H512   0.992       .  S
O510        H511   0.992       .  S
C513        C514   1.407       .  A
C513        C518   1.413       .  A
C514        C515   1.407       .  A
C514        H519   1.083       .  S
C515        C516   1.410       .  A
C515        O520   1.372       .  S
C516        C517   1.401       .  A
C517        C518   1.392       .  A
C517        H521   1.084       .  S
C518        O522   1.372       .  S
O520        H524   0.992       .  S
O522        H523   0.992       .  S
C525        C526   1.399       .  A
C525        C530   1.405       .  A
C526        C527   1.394       .  A
C526        H531   1.084       .  S
C527        C528   1.416       .  A
C527        O532   1.372       .  S
C528        C529   1.409       .  A
C529        C530   1.404       .  A
C529        H533   1.083       .  S
C530        O534   1.371       .  S
O532        H536   0.991       .  S
O534        H535   0.991       .  S
C537        C538   1.407       .  A
C537        C542   1.409       .  A
C538        C539   1.405       .  A
C538        H543   1.084       .  S
C539        C540   1.411       .  A
C539        O544   1.371       .  S
C540        C541   1.403       .  A
C541        C542   1.392       .  A
C541        H545   1.083       .  S
C542        O546   1.372       .  S
O544        H548   0.991       .  S
O546        H547   0.992       .  S
C549        C550   1.403       .  A
C549        C554   1.408       .  A
C550        C551   1.401       .  A
C550        H555   1.084       .  S
C551        C552   1.409       .  A
C551        O556   1.371       .  S
C552        C553   1.401       .  A
C553        C554   1.393       .  A
C553        H557   1.084       .  S
C554        O558   1.373       .  S
O556        H560   0.992       .  S
O558        H559   0.992       .  S
C561        C562   1.402       .  A
C561        C566   1.405       .  A
C562        C563   1.404       .  A
C562        H567   1.084       .  S
C563        C564   1.414       .  A
C563        O568   1.371       .  S
C564        C565   1.406       .  A
C565        C566   1.396       .  A
C565        H569   1.084       .  S
C566        O570   1.372       .  S
O568        H572   0.991       .  S
O570        H571   0.992       .  S
C573        C574   1.404       .  A
C573        C578   1.414       .  A
C574        C575   1.392       .  A
C574        H579   1.084       .  S
C575        C576   1.406       .  A
C575        O580   1.372       .  S
C576        C577   1.401   1_556  A
C577        C578   1.404   1_554  A
C577        H581   1.084       .  S
C578        O582   1.371   1_556  S
O580        H584   0.992       .  S
O582        H583   0.991       .  S
C585        C586   1.398       .  A
C585        C590   1.405       .  A
C586        C587   1.399       .  A
C586        H591   1.084       .  S
C587        C588   1.416       .  A
C587        O592   1.372       .  S
C589        H593   1.084       .  S
O592        H596   0.992       .  S
O594        H595   0.991       .  S
C597        C598   1.399       .  A
C597        C602   1.404       .  A
C598        C599   1.400       .  A
C598        H603   1.083       .  S
C599        C600   1.413       .  A
C599        O604   1.372       .  S
C601        H605   1.084       .  S
O604        H608   0.992       .  S
O606        H607   0.992       .  S
C609        C610   1.401       .  A
C609        C614   1.401       .  A
C609       C1184   1.471       .  S
C610        C611   1.404       .  A
C610        H615   1.083       .  S
C611        C612   1.403       .  A
C611       C1208   1.481       .  S
C612        C613   1.404       .  A
C612        H616   1.084       .  S
C613        C614   1.401       .  A
C613       C1196   1.485       .  S
C614        H617   1.083       .  S
C618        C619   1.405       .  A
C618        C623   1.408       .  A
C618        C844   1.481       .  S
C619        C620   1.397       .  A
C619        H624   1.084       .  S
C620        C621   1.397       .  A
C620        C853   1.478       .  S
C621        C622   1.402       .  A
C621        H625   1.083       .  S
C622        C623   1.406       .  A
C622        C868   1.486       .  S
C623        H626   1.082       .  S
C627        C628   1.404       .  A
C627        C632   1.403       .  A
C627        C829   1.472       .  S
C628        C629   1.399       .  A
C628        H633   1.084       .  S
C629        C630   1.403       .  A
C629        C820   1.483       .  S
C630        C631   1.403       .  A
C630        H634   1.084       .  S
C631        C632   1.404       .  A
C631        C808   1.486       .  S
C632        H635   1.083       .  S
C636        C637   1.404       .  A
C636        C641   1.402       .  A
C636        C793   1.472       .  S
C637        C638   1.405       .  A
C637        H642   1.083       .  S
C638        C639   1.405       .  A
C638        C772   1.488       .  S
C639        C640   1.402       .  A
C639        H643   1.084       .  S
C640        C641   1.394       .  A
C640        C784   1.473       .  S
C641        H644   1.084       .  S
O645       Zr657   2.447       .  S
O645        C647   1.289       .  A
O646       Zr683   2.407       .  S
O646        C647   1.284       .  A
C647        C832   1.482       .  S
O648       Zr660   2.446       .  S
O648        C650   1.288       .  A
O649      Zr1900   2.422   1_455  S
O649        C650   1.285       .  A
C650        C805   1.468       .  S
O651       Zr660   2.444       .  S
O651        C653   1.288       .  A
O652       Zr683   2.418   1_545  S
C653        C901   1.470       .  S
O654       Zr657   2.449       .  S
O654       C1872   1.291   1_455  A
O655       Zr684   2.408       .  S
C656        C732   1.466       .  S
C656       O1870   1.290       .  A
Zr657       O658   2.433       .  S
Zr657      O1875   2.435   1_455  S
Zr657       O663   2.375   1_565  S
Zr657      O1903   2.375   1_455  S
Zr657      O1905   2.370   1_455  S
O658        H701   0.990   1_565  S
O659      Zr1873   2.435       .  S
O659        H700   0.990       .  S
O659       H1920   0.991       .  S
Zr660       O661   2.438       .  S
Zr660       O662   2.435       .  S
Zr660       O664   2.366       .  S
Zr660       O688   2.372       .  S
Zr660       O690   2.375       .  S
O661        H702   0.991       .  S
O661        H705   0.990       .  S
O662        H695   0.990       .  S
O663       Zr683   2.376   1_545  S
O664      Zr1900   2.386   1_455  S
O664        H691   0.965       .  S
O665       Zr677   2.428       .  S
O665        C667   1.286       .  A
O666        C667   1.287       .  A
C667        C817   1.484       .  S
O668       Zr984   2.443   1_554  S
O669       Zr987   2.411   1_554  S
O669       C1886   1.284   1_455  A
C670        C718   1.472       .  S
C670       O1885   1.285       .  A
O671       Zr680   2.439       .  S
O671        C673   1.287       .  A
O672       Zr684   2.412       .  S
O672        C673   1.286       .  A
C673        C877   1.475       .  S
O674       Zr677   2.438       .  S
O674        C676   1.287       .  A
O675      Zr1899   2.418       .  S
O675        C676   1.284       .  A
C676        C889   1.467       .  S
Zr677       O678   2.437       .  S
Zr677       O679   2.436       .  S
Zr677       O685   2.371       .  S
Zr677       O686   2.361       .  S
Zr677       O689   2.367       .  S
Zr677       O687   2.376       .  S
O678        H698   0.990       .  S
O678        H703   0.990       .  S
O679        H699   0.990       .  S
Zr680       O972   2.443       .  S
Zr680      O2202   2.437       .  S
Zr680      O1906   2.375       .  S
Zr680      O1904   2.374       .  S
O681        H697   0.990       .  S
O682      Zr2200   2.435   1_454  S
O682        H696   0.990       .  S
O682       H1922   0.990   1_455  S
Zr683       O973   2.402       .  S
Zr683      O1891   2.418   1_455  S
Zr683      O1902   2.372   1_455  S
Zr683      O1905   2.375   1_455  S
Zr684      O1865   2.425       .  S
Zr684      O1880   2.386       .  S
Zr684      O1906   2.382       .  S
O685        H693   0.966       .  S
O686      Zr1899   2.374       .  S
O687      Zr1873   2.377       .  S
O688      Zr1896   2.373   1_455  S
O688        H692   0.965       .  S
O689      Zr1873   2.373       .  S
O689      Zr1899   2.379       .  S
O689        H694   0.965       .  S
O690      Zr1896   2.377   1_455  S
O690      Zr1900   2.383   1_455  S
H704       O1875   0.990   1_455  S
H706       O1898   0.990       .  S
O707       Zr719   2.441       .  S
O707        C709   1.287       .  A
O708       Zr745   2.404       .  S
O708        C709   1.284       .  A
C709        C796   1.472       .  S
O710       Zr722   2.452       .  S
O710        C712   1.290       .  A
O711      Zr1962   2.415   1_455  S
O711        C712   1.284       .  A
C712        C769   1.468       .  S
O713       Zr722   2.443       .  S
O713        C715   1.288       .  A
O714       Zr745   2.419   1_545  S
C715        C865   1.467       .  S
O716       Zr719   2.451       .  S
O716       C1934   1.290       .  A
O717       Zr746   2.412       .  S
C718       O1932   1.290       .  A
Zr719       O720   2.434       .  S
Zr719      O1937   2.436       .  S
Zr719       O725   2.379   1_565  S
Zr719      O1965   2.371   1_455  S
Zr719      O1967   2.372   1_455  S
O720        H763   0.990   1_565  S
O721      Zr1935   2.436       .  S
O721        H762   0.990       .  S
O721       H1982   0.991       .  S
Zr722       O723   2.435       .  S
Zr722       O724   2.436       .  S
Zr722       O726   2.372       .  S
Zr722       O750   2.377       .  S
Zr722       O752   2.371       .  S
O723        H764   0.990       .  S
O723        H767   0.990       .  S
O724        H757   0.990       .  S
O725       Zr745   2.379   1_545  S
O726      Zr1962   2.383   1_455  S
O726        H753   0.966       .  S
O727       Zr739   2.420       .  S
O727        C729   1.284       .  A
O728        C729   1.286       .  A
C729        C781   1.471       .  S
O730       Zr742   2.453       .  S
O731       Zr745   2.406       .  S
O731       C1948   1.283   1_455  A
C732       O1947   1.282       .  A
O733       Zr742   2.446       .  S
O733        C735   1.289       .  A
O734       Zr746   2.402       .  S
O734        C735   1.283       .  A
C735        C841   1.475       .  S
O736       Zr739   2.415       .  S
O736        C738   1.284       .  A
O737      Zr1961   2.414       .  S
O737        C738   1.284       .  A
C738        C856   1.471       .  S
Zr739       O740   2.435       .  S
Zr739       O741   2.435       .  S
Zr739       O747   2.367       .  S
Zr739       O748   2.365       .  S
Zr739       O751   2.370       .  S
Zr739       O749   2.365       .  S
O740        H760   0.990       .  S
O740        H765   0.990       .  S
O741        H761   0.990       .  S
Zr742      O1960   2.437       .  S
Zr742      O1968   2.379       .  S
Zr742      O1966   2.365       .  S
O743        H759   0.990   1_545  S
O744      Zr1958   2.438   1_455  S
O744        H758   0.990       .  S
O744       H1984   0.990   1_455  S
Zr745      O1953   2.418   1_455  S
Zr745      O1964   2.376   1_455  S
Zr745      O1967   2.383   1_455  S
Zr746      O1927   2.416       .  S
Zr746      O1942   2.382       .  S
Zr746      O1968   2.386       .  S
O747        H755   0.965       .  S
O748      Zr1961   2.376       .  S
O749      Zr1935   2.375       .  S
O750      Zr1958   2.366   1_455  S
O750        H754   0.967       .  S
O751      Zr1935   2.370       .  S
O751      Zr1961   2.382       .  S
O751        H756   0.965       .  S
O752      Zr1958   2.380   1_455  S
O752      Zr1962   2.385   1_455  S
H766       O1937   0.990       .  S
H768       O1960   0.990       .  S
C769        C770   1.400       .  A
C769        C774   1.404       .  A
C770        C771   1.402       .  A
C770        H775   1.084       .  S
C771        C772   1.415       .  A
C771        O776   1.372       .  S
C772        C773   1.406       .  A
C773        C774   1.398       .  A
C773        H777   1.084       .  S
C774        O778   1.372       .  S
O776        H780   0.991       .  S
O778        H779   0.992       .  S
C781        C782   1.402       .  A
C781        C786   1.409       .  A
C782        C783   1.390       .  A
C782        H787   1.084       .  S
C783        C784   1.406       .  A
C783        O788   1.372       .  S
C784        C785   1.405       .  A
C785        C786   1.406       .  A
C785        H789   1.083       .  S
C786        O790   1.371       .  S
O788        H792   0.992       .  S
O790        H791   0.991       .  S
C793        C794   1.401       .  A
C793        C798   1.409       .  A
C794        C795   1.400       .  A
C794        H799   1.083       .  S
C795        C796   1.411       .  A
C795        O800   1.372       .  S
C796        C797   1.403       .  A
C797        C798   1.391       .  A
C797        H801   1.084       .  S
C798        O802   1.373       .  S
O800        H804   0.992       .  S
O802        H803   0.992       .  S
C805        C806   1.399       .  A
C805        C810   1.405       .  A
C806        C807   1.401       .  A
C806        H811   1.084       .  S
C807        C808   1.415       .  A
C807        O812   1.372       .  S
C808        C809   1.406       .  A
C809        C810   1.398       .  A
C809        H813   1.084       .  S
C810        O814   1.371       .  S
O812        H816   0.992       .  S
O814        H815   0.992       .  S
C817        C818   1.408       .  A
C817        C822   1.413       .  A
C818        C819   1.406       .  A
C818        H823   1.083       .  S
C819        C820   1.410       .  A
C819        O824   1.372       .  S
C820        C821   1.401       .  A
C821        C822   1.391       .  A
C821        H825   1.084       .  S
C822        O826   1.372       .  S
O824        H828   0.992       .  S
O826        H827   0.992       .  S
C829        C830   1.400       .  A
C829        C834   1.405       .  A
C830        C831   1.393       .  A
C830        H835   1.084       .  S
C831        C832   1.413       .  A
C831        O836   1.372       .  S
C832        C833   1.409       .  A
C833        C834   1.402       .  A
C833        H837   1.083       .  S
C834        O838   1.372       .  S
O836        H840   0.992       .  S
O838        H839   0.991       .  S
C841        C842   1.405       .  A
C841        C846   1.409       .  A
C842        C843   1.403       .  A
C842        H847   1.084       .  S
C843        C844   1.410       .  A
C843        O848   1.371       .  S
C844        C845   1.403       .  A
C845        C846   1.392       .  A
C845        H849   1.084       .  S
C846        O850   1.373       .  S
O848        H852   0.991       .  S
O850        H851   0.993       .  S
C853        C854   1.404       .  A
C853        C858   1.410       .  A
C854        C855   1.401       .  A
C854        H859   1.084       .  S
C855        C856   1.409       .  A
C855        O860   1.371       .  S
C856        C857   1.401       .  A
C857        C858   1.391       .  A
C857        H861   1.084       .  S
C858        O862   1.373       .  S
O860        H864   0.992       .  S
O862        H863   0.993       .  S
C865        C866   1.401       .  A
C865        C870   1.403       .  A
C866        C867   1.403       .  A
C866        H871   1.084       .  S
C867        C868   1.414       .  A
C867        O872   1.372       .  S
C868        C869   1.406       .  A
C869        C870   1.395       .  A
C869        H873   1.084       .  S
C870        O874   1.371       .  S
O872        H876   0.991       .  S
O874        H875   0.992       .  S
C877        C878   1.402       .  A
C877        C882   1.412       .  A
C878        C879   1.390       .  A
C878        H883   1.084       .  S
C879        C880   1.406       .  A
C879        O884   1.372       .  S
C880        C881   1.403       .  A
C880        C913   1.472       .  S
C881        C882   1.404       .  A
C881        H885   1.084       .  S
C882        O886   1.372       .  S
O884        H888   0.992       .  S
O886        H887   0.991       .  S
C889        C890   1.399       .  A
C889        C894   1.406       .  A
C890        C891   1.400       .  A
C890        H895   1.084       .  S
C891        C892   1.415       .  A
C891        O896   1.372       .  S
C892       C1197   1.406       .  A
C892        C917   1.485       .  S
C893       C1196   1.406   1_554  A
C893       C1198   1.397   1_554  A
C893        H897   1.084       .  S
C894       C1197   1.396       .  A
C894       O1202   1.372       .  S
O896        H900   0.992       .  S
O898       C1198   1.372   1_554  S
O898        H899   0.991       .  S
C901        C902   1.400       .  A
C901        C906   1.405       .  A
C902        C903   1.401       .  A
C902        H907   1.083       .  S
C903        C904   1.414       .  A
C903        O908   1.372       .  S
C904       C1209   1.407       .  A
C904        C915   1.488       .  S
C905       C1208   1.407   1_554  A
C905       C1210   1.397   1_554  A
C905        H909   1.084       .  S
C906       C1209   1.399       .  A
C906       O1214   1.372       .  S
O908        H912   0.992       .  S
O910       C1210   1.372   1_554  S
O910        H911   0.992   1_554  S
C913        C914   1.402       .  A
C913        C918   1.402       .  A
C914        C915   1.405       .  A
C914        H919   1.083       .  S
C915        C916   1.404       .  A
C916        C917   1.404       .  A
C916        H920   1.084       .  S
C917        C918   1.400       .  A
C918        H921   1.083       .  S
C922        C923   1.403       .  A
C922        C927   1.409       .  A
C922       C1148   1.478       .  S
C923        C924   1.392       .  A
C923        H928   1.085       .  S
C924        C925   1.396       .  A
C924       C1157   1.470       .  S
C925        C926   1.407       .  A
C925        H929   1.084       .  S
C926        C927   1.410       .  A
C926       C1172   1.493       .  S
C927        H930   1.082       .  S
C931        C932   1.404       .  A
C931        C936   1.405       .  A
C931       C1133   1.474       .  S
C932        C933   1.401       .  A
C932        H937   1.084       .  S
C933        C934   1.405       .  A
C933       C1124   1.485       .  S
C934        C935   1.404       .  A
C934        H938   1.084       .  S
C935        C936   1.405       .  A
C935       C1112   1.488       .  S
C936        H939   1.084       .  S
C940        C941   1.402       .  A
C940        C945   1.402       .  A
C940       C1097   1.466       .  S
C941        C942   1.402       .  A
C941        H946   1.084       .  S
C942        C943   1.403       .  A
C942       C1076   1.482       .  S
C943        C944   1.402       .  A
C943        H947   1.084       .  S
C944        C945   1.396       .  A
C944       C1088   1.475       .  S
C945        H948   1.084       .  S
O949       Zr961   2.450       .  S
O949        C951   1.289       .  A
O950       Zr987   2.409       .  S
O950        C951   1.284       .  A
C951       C1136   1.486       .  S
O952       Zr964   2.456       .  S
O952        C954   1.290       .  A
O953      Zr2204   2.419   1_455  S
O953        C954   1.284       .  A
C954       C1109   1.470       .  S
O955       Zr964   2.443       .  S
O955        C957   1.288       .  A
O956       Zr987   2.407   1_545  S
C957       C1205   1.461       .  S
O958       Zr961   2.456       .  S
O958       C2176   1.292   1_455  A
O959       Zr988   2.399       .  S
C960       C1036   1.467       .  S
C960       O2174   1.291       .  A
Zr961       O962   2.434       .  S
Zr961      O2179   2.436   1_455  S
Zr961       O967   2.380       .  S
Zr961      O2207   2.376   1_455  S
Zr961      O2209   2.373   1_455  S
O962       H1005   0.990   1_565  S
O963      Zr2177   2.434       .  S
O963       H1004   0.990       .  S
O963       H2224   0.990       .  S
Zr964       O965   2.437       .  S
Zr964       O966   2.433       .  S
Zr964       O968   2.361       .  S
Zr964       O992   2.372       .  S
Zr964       O994   2.373       .  S
O965       H1006   0.991       .  S
O965       H1009   0.990       .  S
O966        H999   0.990       .  S
O967       Zr987   2.380       .  S
O968      Zr2204   2.385   1_455  S
O968        H995   0.965       .  S
O969       Zr981   2.433       .  S
O969        C971   1.287       .  A
O970        C971   1.288       .  A
C971       C1121   1.486       .  S
O973       C2190   1.283       .  A
C974       C1022   1.465       .  S
C974       O2189   1.285       .  A
O975       Zr984   2.441       .  S
O975        C977   1.288       .  A
O976       Zr988   2.414       .  S
O976        C977   1.286       .  A
C977       C1181   1.480       .  S
O978       Zr981   2.435       .  S
O978        C980   1.287       .  A
O979      Zr2203   2.416       .  S
O979        C980   1.284       .  A
C980       C1193   1.466       .  S
Zr981       O982   2.437       .  S
Zr981       O983   2.436       .  S
Zr981       O989   2.371       .  S
Zr981       O990   2.363       .  S
Zr981       O993   2.369       .  S
Zr981       O991   2.374       .  S
O982       H1002   0.990       .  S
O982       H1007   0.990       .  S
O983       H1003   0.990       .  S
Zr984      O1898   2.436   1_556  S
Zr984      O2210   2.372       .  S
Zr984      O2208   2.371       .  S
O985       H1001   0.990       .  S
O986      Zr1896   2.437       .  S
O986       H1000   0.990       .  S
O986       H2226   0.990   1_655  S
Zr987      O2195   2.410   1_455  S
Zr987      O2206   2.373   1_455  S
Zr987      O2209   2.380   1_455  S
Zr988      O2169   2.416       .  S
Zr988      O2184   2.387       .  S
Zr988      O2210   2.382       .  S
O989        H997   0.966       .  S
O990      Zr2203   2.375       .  S
O991      Zr2177   2.377       .  S
O992      Zr2200   2.369   1_455  S
O992        H996   0.965       .  S
O993      Zr2177   2.375       .  S
O993      Zr2203   2.381       .  S
O993        H998   0.965       .  S
O994      Zr2200   2.375   1_455  S
O994      Zr2204   2.380   1_455  S
H1008      O2179   0.991   1_455  S
H1010      O2202   0.990       .  S
O1011     Zr1023   2.444       .  S
O1011      C1013   1.288       .  A
O1012     Zr1049   2.397       .  S
O1012      C1013   1.283       .  A
C1013      C1100   1.474       .  S
O1014     Zr1026   2.452       .  S
O1014      C1016   1.289       .  A
O1015     Zr2266   2.409   1_455  S
O1015      C1016   1.282       .  A
C1016      C1073   1.464       .  S
O1017     Zr1026   2.447       .  S
O1017      C1019   1.289       .  A
O1018     Zr1049   2.427   1_545  S
C1019      C1169   1.473       .  S
O1020     Zr1023   2.442       .  S
O1020      C2238   1.289       .  A
O1021     Zr1050   2.413       .  S
C1022      O2236   1.287       .  A
Zr1023     O1024   2.436       .  S
Zr1023     O2241   2.436   1_455  S
Zr1023     O1029   2.380   1_565  S
Zr1023     O2269   2.373   1_455  S
Zr1023     O2271   2.367   1_455  S
O1024      H1067   0.990   1_565  S
O1025     Zr2239   2.437       .  S
O1025      H1066   0.990       .  S
O1025      H2286   0.991       .  S
Zr1026     O1027   2.435       .  S
Zr1026     O1028   2.436       .  S
Zr1026     O1030   2.370       .  S
Zr1026     O1054   2.377       .  S
Zr1026     O1056   2.375       .  S
O1027      H1068   0.990       .  S
O1027      H1071   0.990       .  S
O1028      H1061   0.990       .  S
O1029     Zr1049   2.380   1_545  S
O1030     Zr2266   2.382   1_455  S
O1030      H1057   0.965       .  S
O1031     Zr1043   2.421       .  S
O1031      C1033   1.285       .  A
O1032      C1033   1.286       .  A
C1033      C1085   1.470       .  S
O1034     Zr1046   2.456       .  S
O1035     Zr1049   2.406       .  S
O1035      C2252   1.282   1_455  A
C1036      O2251   1.283       .  A
O1037     Zr1046   2.453       .  S
O1037      C1039   1.290       .  A
O1038     Zr1050   2.404       .  S
O1038      C1039   1.284       .  A
C1039      C1145   1.482       .  S
O1040     Zr1043   2.424       .  S
O1040      C1042   1.285       .  A
O1041     Zr2265   2.422       .  S
O1041      C1042   1.285       .  A
C1042      C1160   1.469       .  S
Zr1043     O1044   2.435       .  S
Zr1043     O1045   2.436       .  S
Zr1043     O1051   2.371       .  S
Zr1043     O1052   2.368       .  S
Zr1043     O1055   2.363       .  S
Zr1043     O1053   2.365       .  S
O1044      H1064   0.990       .  S
O1044      H1069   0.990       .  S
O1045      H1065   0.990       .  S
Zr1046     O2264   2.438       .  S
Zr1046     O2272   2.380       .  S
Zr1046     O2270   2.370       .  S
O1047      H1063   0.990       .  S
O1048     Zr2262   2.437   1_455  S
O1048      H1062   0.990   1_455  S
O1048      H2288   0.990       .  S
Zr1049     O2257   2.412   1_455  S
Zr1049     O2268   2.377   1_455  S
Zr1049     O2271   2.384   1_455  S
Zr1050     O2231   2.413       .  S
Zr1050     O2246   2.379       .  S
Zr1050     O2272   2.382       .  S
O1051      H1059   0.965       .  S
O1052     Zr2265   2.377       .  S
O1053     Zr2239   2.373       .  S
O1054     Zr2262   2.368   1_455  S
O1054      H1058   0.965       .  S
O1055     Zr2239   2.367       .  S
O1055     Zr2265   2.379       .  S
O1055      H1060   0.964       .  S
O1056     Zr2262   2.377   1_455  S
O1056     Zr2266   2.380   1_455  S
H1070      O2241   0.991       .  S
H1072      O2264   0.990       .  S
C1073      C1074   1.399       .  A
C1073      C1078   1.404       .  A
C1074      C1075   1.400       .  A
C1074      H1079   1.084       .  S
C1075      C1076   1.414       .  A
C1075      O1080   1.372       .  S
C1076      C1077   1.405       .  A
C1077      C1078   1.397       .  A
C1077      H1081   1.084       .  S
C1078      O1082   1.372       .  S
O1080      H1084   0.991       .  S
O1082      H1083   0.992       .  S
C1085      C1086   1.401       .  A
C1085      C1090   1.408       .  A
C1086      C1087   1.388       .  A
C1086      H1091   1.084       .  S
C1087      C1088   1.406       .  A
C1087      O1092   1.372       .  S
C1088      C1089   1.406       .  A
C1089      C1090   1.407       .  A
C1089      H1093   1.083       .  S
C1090      O1094   1.371       .  S
O1092      H1096   0.992       .  S
O1094      H1095   0.991       .  S
C1097      C1098   1.401       .  A
C1097      C1102   1.404       .  A
C1098      C1099   1.401       .  A
C1098      H1103   1.084       .  S
C1099      C1100   1.412       .  A
C1099      O1104   1.371       .  S
C1100      C1101   1.405       .  A
C1101      C1102   1.390       .  A
C1101      H1105   1.084       .  S
C1102      O1106   1.373       .  S
O1104      H1108   0.992       .  S
O1106      H1107   0.992       .  S
C1109      C1110   1.400       .  A
C1109      C1114   1.405       .  A
C1110      C1111   1.402       .  A
C1110      H1115   1.084       .  S
C1111      C1112   1.415       .  A
C1111      O1116   1.372       .  S
C1112      C1113   1.406       .  A
C1113      C1114   1.399       .  A
C1113      H1117   1.084       .  S
C1114      O1118   1.372       .  S
O1116      H1120   0.992       .  S
O1118      H1119   0.991       .  S
C1121      C1122   1.408       .  A
C1121      C1126   1.412       .  A
C1122      C1123   1.408       .  A
C1122      H1127   1.083       .  S
C1123      C1124   1.410       .  A
C1123      O1128   1.372       .  S
C1124      C1125   1.402       .  A
C1125      C1126   1.394       .  A
C1125      H1129   1.084       .  S
C1126      O1130   1.372       .  S
O1128      H1132   0.992       .  S
O1130      H1131   0.992       .  S
C1133      C1134   1.399       .  A
C1133      C1138   1.405       .  A
C1134      C1135   1.395       .  A
C1134      H1139   1.084       .  S
C1135      C1136   1.415       .  A
C1135      O1140   1.372       .  S
C1136      C1137   1.410       .  A
C1137      C1138   1.403       .  A
C1137      H1141   1.083       .  S
C1138      O1142   1.371       .  S
O1140      H1144   0.991       .  S
O1142      H1143   0.991       .  S
C1145      C1146   1.408       .  A
C1145      C1150   1.413       .  A
C1146      C1147   1.404       .  A
C1146      H1151   1.083       .  S
C1147      C1148   1.406       .  A
C1147      O1152   1.371       .  S
C1148      C1149   1.402       .  A
C1149      C1150   1.392       .  A
C1149      H1153   1.084       .  S
C1150      O1154   1.373       .  S
O1152      H1156   0.991       .  S
O1154      H1155   0.992       .  S
C1157      C1158   1.401       .  A
C1157      C1162   1.406       .  A
C1158      C1159   1.401       .  A
C1158      H1163   1.084       .  S
C1159      C1160   1.408       .  A
C1159      O1164   1.371       .  S
C1160      C1161   1.402       .  A
C1161      C1162   1.395       .  A
C1161      H1165   1.084       .  S
C1162      O1166   1.373       .  S
O1164      H1168   0.992       .  S
O1166      H1167   0.992       .  S
C1169      C1170   1.402       .  A
C1169      C1174   1.405       .  A
C1170      C1171   1.403       .  A
C1170      H1175   1.084       .  S
C1171      C1172   1.415       .  A
C1171      O1176   1.371       .  S
C1172      C1173   1.408       .  A
C1173      C1174   1.397       .  A
C1173      H1177   1.084       .  S
C1174      O1178   1.372       .  S
O1176      H1180   0.991       .  S
O1178      H1179   0.992       .  S
C1181      C1182   1.404       .  A
C1181      C1186   1.414       .  A
C1182      C1183   1.392       .  A
C1182      H1187   1.084       .  S
C1183      C1184   1.406       .  A
C1183      O1188   1.372       .  S
C1184      C1185   1.401   1_556  A
C1185      C1186   1.404   1_554  A
C1185      H1189   1.084       .  S
C1186      O1190   1.371   1_556  S
O1188      H1192   0.992       .  S
O1190      H1191   0.991       .  S
C1193      C1194   1.399       .  A
C1193      C1198   1.405       .  A
C1194      C1195   1.399       .  A
C1194      H1199   1.084       .  S
C1195      C1196   1.415       .  A
C1195      O1200   1.372       .  S
C1197      H1201   1.084       .  S
O1200      H1204   0.992       .  S
O1202      H1203   0.991       .  S
C1205      C1206   1.398       .  A
C1205      C1210   1.403       .  A
C1206      C1207   1.398       .  A
C1206      H1211   1.083       .  S
C1207      C1208   1.412       .  A
C1207      O1212   1.372       .  S
C1209      H1213   1.084       .  S
O1212      H1216   0.992       .  S
O1214      H1215   0.992       .  S
C1217      C1218   1.403       .  A
C1217      C1222   1.399       .  A
C1217      C1792   1.474       .  S
C1218      C1219   1.408       .  A
C1218      H1223   1.083       .  S
C1219      C1220   1.405       .  A
C1219      C1816   1.491       .  S
C1220      C1221   1.405       .  A
C1220      H1224   1.084       .  S
C1221      C1222   1.401       .  A
C1221      C1804   1.485       .  S
C1222      H1225   1.083   1_556  S
C1226      C1227   1.405       .  A
C1226      C1231   1.408       .  A
C1226      C1452   1.478       .  S
C1227      C1228   1.396       .  A
C1227      H1232   1.084       .  S
C1228      C1229   1.398       .  A
C1228      C1461   1.477       .  S
C1229      C1230   1.404       .  A
C1229      H1233   1.084       .  S
C1230      C1231   1.408       .  A
C1230      C1476   1.491       .  S
C1231      H1234   1.083       .  S
C1235      C1236   1.406       .  A
C1235      C1240   1.406       .  A
C1235      C1437   1.477       .  S
C1236      C1237   1.400       .  A
C1236      H1241   1.084       .  S
C1237      C1238   1.405       .  A
C1237      C1428   1.489       .  S
C1238      C1239   1.405       .  A
C1238      H1242   1.083       .  S
C1239      C1240   1.406       .  A
C1239      C1416   1.494       .  S
C1240      H1243   1.083       .  S
C1244      C1245   1.405       .  A
C1244      C1249   1.402       .  A
C1244      C1401   1.475       .  S
C1245      C1246   1.404       .  A
C1245      H1250   1.083       .  S
C1246      C1247   1.401       .  A
C1246      C1380   1.485       .  S
C1247      C1248   1.399       .  A
C1247      H1251   1.084       .  S
C1248      C1249   1.397       .  A
C1248      C1392   1.469       .  S
C1249      H1252   1.084       .  S
O1253     Zr1265   2.444       .  S
O1253      C1255   1.288       .  A
O1254     Zr1291   2.420       .  S
O1254      C1255   1.286       .  A
C1255      C1440   1.486       .  S
O1256     Zr1268   2.452       .  S
O1256      C1258   1.290       .  A
O1257      C1258   1.286       .  A
C1258      C1413   1.474       .  S
O1259     Zr1268   2.446       .  S
O1259      C1261   1.288       .  A
O1260     Zr1291   2.414       .  S
O1260      C1869   1.284       .  A
C1261      C1509   1.468       .  S
C1261      O1868   1.284       .  A
O1262     Zr1265   2.453       .  S
O1263     Zr1292   2.405   1_565  S
O1263      C1872   1.283       .  A
C1264      C1340   1.470       .  S
C1264      O1871   1.283       .  A
Zr1265     O1266   2.434       .  S
Zr1265     O1271   2.378       .  S
Zr1265     O1880   2.369       .  S
O1266      H1309   0.990       .  S
O1267      H1308   0.990       .  S
Zr1268     O1269   2.434       .  S
Zr1268     O1270   2.435       .  S
Zr1268     O1272   2.366       .  S
Zr1268     O1879   2.378   1_545  S
Zr1268     O1296   2.369       .  S
Zr1268     O1298   2.371       .  S
O1269      H1310   0.991       .  S
O1269      H1313   0.990       .  S
O1270      H1303   0.990       .  S
O1271     Zr1876   2.377       .  S
O1271     Zr1291   2.375       .  S
O1272     Zr1873   2.369   1_545  S
O1272      H1299   0.965       .  S
O1273     Zr1285   2.433       .  S
O1273      C1275   1.287       .  A
O1274     Zr1900   2.432       .  S
O1274      C1275   1.287       .  A
C1275      C1425   1.487       .  S
O1276     Zr1592   2.458   1_554  S
O1276      C1886   1.291   1_545  A
O1277     Zr1595   2.407   1_554  S
C1278      C1326   1.469       .  S
C1278      O1884   1.290       .  A
O1279     Zr1288   2.437       .  S
O1279      C1281   1.287       .  A
O1280     Zr1292   2.417       .  S
O1280      C1281   1.286       .  A
C1281      C1485   1.483       .  S
O1282     Zr1285   2.437       .  S
O1282      C1284   1.287       .  A
O1283      C1284   1.285       .  A
C1284      C1497   1.467       .  S
Zr1285     O1286   2.436       .  S
Zr1285     O1287   2.436       .  S
Zr1285     O1293   2.371       .  S
Zr1285     O1294   2.364       .  S
Zr1285     O1297   2.367       .  S
Zr1285     O1295   2.371       .  S
O1286      H1306   0.990       .  S
O1286      H1311   0.990       .  S
O1287      H1307   0.990       .  S
Zr1288     O1580   2.445       .  S
Zr1288     O2201   2.432   1_545  S
Zr1288     O1902   2.364   1_545  S
Zr1288     O1901   2.375   1_545  S
O1289     Zr2200   2.433   1_554  S
O1289      H1305   0.990       .  S
O1290      H1304   0.990       .  S
Zr1291     O1581   2.418       .  S
Zr1291     O1904   2.384       .  S
Zr1292     O1882   2.426   1_545  S
Zr1292     O1901   2.381   1_545  S
Zr1292     O1903   2.381   1_545  S
O1293     Zr1896   2.375       .  S
O1293     Zr1900   2.380       .  S
O1293      H1301   0.966       .  S
O1294     Zr1896   2.362       .  S
O1295     Zr1900   2.382       .  S
O1296     Zr1899   2.382   1_545  S
O1296      H1300   0.965       .  S
O1297      H1302   0.965       .  S
O1315     Zr1327   2.435       .  S
O1315      C1317   1.286       .  A
O1316     Zr1353   2.406       .  S
O1316      C1317   1.284       .  A
C1317      C1404   1.470       .  S
O1318     Zr1330   2.447       .  S
O1318      C1320   1.289       .  A
O1319      C1320   1.283       .  A
C1320      C1377   1.462       .  S
O1321     Zr1330   2.446       .  S
O1321      C1323   1.289       .  A
O1322     Zr1353   2.422       .  S
O1322      C1931   1.285       .  A
C1323      C1473   1.471       .  S
C1323      O1930   1.284       .  A
O1324     Zr1327   2.440       .  S
O1325     Zr1354   2.414       .  S
O1325      C1934   1.284   1_645  A
C1326      O1933   1.285       .  A
Zr1327     O1328   2.437       .  S
Zr1327     O1333   2.377       .  S
Zr1327     O1942   2.364       .  S
O1328      H1371   0.990       .  S
O1329      H1370   0.990   1_655  S
Zr1330     O1331   2.433       .  S
Zr1330     O1332   2.436       .  S
Zr1330     O1334   2.374       .  S
Zr1330     O1941   2.373       .  S
Zr1330     O1358   2.376       .  S
Zr1330     O1360   2.374       .  S
O1331      H1372   0.990       .  S
O1331      H1375   0.990       .  S
O1332      H1365   0.990       .  S
O1333     Zr1938   2.375       .  S
O1333     Zr1353   2.380       .  S
O1334     Zr1935   2.363   1_545  S
O1334      H1361   0.965       .  S
O1335     Zr1347   2.422       .  S
O1335      C1337   1.284       .  A
O1336     Zr1962   2.430       .  S
O1336      C1337   1.286       .  A
C1337      C1389   1.468       .  S
O1338     Zr1350   2.448       .  S
O1338      C1948   1.290   1_545  A
O1339     Zr1353   2.404       .  S
C1340      O1946   1.292       .  A
O1341     Zr1350   2.450       .  S
O1341      C1343   1.290       .  A
O1342     Zr1354   2.404       .  S
O1342      C1343   1.283       .  A
C1343      C1449   1.482       .  S
O1344     Zr1347   2.425       .  S
O1344      C1346   1.286       .  A
O1345      C1346   1.284       .  A
C1346      C1464   1.474       .  S
Zr1347     O1348   2.435       .  S
Zr1347     O1349   2.435       .  S
Zr1347     O1355   2.368       .  S
Zr1347     O1356   2.367       .  S
Zr1347     O1359   2.367       .  S
Zr1347     O1357   2.369       .  S
O1348      H1368   0.990       .  S
O1348      H1373   0.990       .  S
O1349      H1369   0.990       .  S
Zr1350     O1959   2.435   1_545  S
Zr1350     O1964   2.371   1_545  S
Zr1350     O1963   2.374   1_545  S
O1351     Zr1958   2.435       .  S
O1351      H1367   0.990       .  S
O1352      H1366   0.990       .  S
Zr1353     O1966   2.385       .  S
Zr1354     O1944   2.422   1_545  S
Zr1354     O1963   2.380   1_545  S
Zr1354     O1965   2.376   1_545  S
O1355     Zr1958   2.376       .  S
O1355     Zr1962   2.381       .  S
O1355      H1363   0.965       .  S
O1356     Zr1958   2.369       .  S
O1357     Zr1962   2.378       .  S
O1358     Zr1961   2.384   1_545  S
O1358      H1362   0.967       .  S
O1359      H1364   0.965       .  S
C1377      C1378   1.396       .  A
C1377      C1382   1.404       .  A
C1378      C1379   1.395       .  A
C1378      H1383   1.083       .  S
C1379      C1380   1.414       .  A
C1379      O1384   1.370       .  S
C1380      C1381   1.408       .  A
C1381      C1382   1.399       .  A
C1381      H1385   1.084       .  S
C1382      O1386   1.372       .  S
O1384      H1388   0.991       .  S
O1386      H1387   0.992       .  S
C1389      C1390   1.402       .  A
C1389      C1394   1.408       .  A
C1390      C1391   1.390       .  A
C1390      H1395   1.084       .  S
C1391      C1392   1.406       .  A
C1391      O1396   1.373       .  S
C1392      C1393   1.403       .  A
C1393      C1394   1.404       .  A
C1393      H1397   1.083       .  S
C1394      O1398   1.371       .  S
O1396      H1400   0.992       .  S
O1398      H1399   0.991       .  S
C1401      C1402   1.404       .  A
C1401      C1406   1.408       .  A
C1402      C1403   1.401       .  A
C1402      H1407   1.084       .  S
C1403      C1404   1.409       .  A
C1403      O1408   1.372       .  S
C1404      C1405   1.401       .  A
C1405      C1406   1.391       .  A
C1405      H1409   1.084       .  S
C1406      O1410   1.372       .  S
O1408      H1412   0.992       .  S
O1410      H1411   0.992       .  S
C1413      C1414   1.401       .  A
C1413      C1418   1.406       .  A
C1414      C1415   1.404       .  A
C1414      H1419   1.084       .  S
C1415      C1416   1.417       .  A
C1415      O1420   1.372       .  S
C1416      C1417   1.407       .  A
C1417      C1418   1.399       .  A
C1417      H1421   1.084       .  S
C1418      O1422   1.371       .  S
O1420      H1424   0.992       .  S
O1422      H1423   0.992       .  S
C1425      C1426   1.409       .  A
C1425      C1430   1.411       .  A
C1426      C1427   1.409       .  A
C1426      H1431   1.084       .  S
C1427      C1428   1.412       .  A
C1427      O1432   1.372       .  S
C1428      C1429   1.401       .  A
C1429      C1430   1.391       .  A
C1429      H1433   1.084       .  S
C1430      O1434   1.371       .  S
O1432      H1436   0.992       .  S
O1434      H1435   0.992       .  S
C1437      C1438   1.400       .  A
C1437      C1442   1.406       .  A
C1438      C1439   1.394       .  A
C1438      H1443   1.084       .  S
C1439      C1440   1.412       .  A
C1439      O1444   1.371       .  S
C1440      C1441   1.411       .  A
C1441      C1442   1.406       .  A
C1441      H1445   1.083       .  S
C1442      O1446   1.372       .  S
O1444      H1448   0.992       .  S
O1446      H1447   0.991       .  S
C1449      C1450   1.408       .  A
C1449      C1454   1.413       .  A
C1450      C1451   1.404       .  A
C1450      H1455   1.083       .  S
C1451      C1452   1.407       .  A
C1451      O1456   1.371       .  S
C1452      C1453   1.400       .  A
C1453      C1454   1.392       .  A
C1453      H1457   1.084       .  S
C1454      O1458   1.373       .  S
O1456      H1460   0.991       .  S
O1458      H1459   0.992       .  S
C1461      C1462   1.403       .  A
C1461      C1466   1.408       .  A
C1462      C1463   1.402       .  A
C1462      H1467   1.084       .  S
C1463      C1464   1.411       .  A
C1463      O1468   1.371       .  S
C1464      C1465   1.402       .  A
C1465      C1466   1.393       .  A
C1465      H1469   1.084       .  S
C1466      O1470   1.373       .  S
O1468      H1472   0.992       .  S
O1470      H1471   0.992       .  S
C1473      C1474   1.402       .  A
C1473      C1478   1.404       .  A
C1474      C1475   1.404       .  A
C1474      H1479   1.084       .  S
C1475      C1476   1.415       .  A
C1475      O1480   1.372       .  S
C1476      C1477   1.407       .  A
C1477      C1478   1.397       .  A
C1477      H1481   1.084       .  S
C1478      O1482   1.372       .  S
O1480      H1484   0.991       .  S
O1482      H1483   0.992       .  S
C1485      C1486   1.405       .  A
C1485      C1490   1.416       .  A
C1486      C1487   1.393       .  A
C1486      H1491   1.084       .  S
C1487      C1488   1.404       .  A
C1487      O1492   1.372       .  S
C1488      C1489   1.400       .  A
C1488      C1521   1.471       .  S
C1489      C1490   1.404       .  A
C1489      H1493   1.083       .  S
C1490      O1494   1.372       .  S
O1492      H1496   0.992       .  S
O1494      H1495   0.991       .  S
C1497      C1498   1.399       .  A
C1497      C1502   1.405       .  A
C1498      C1499   1.400       .  A
C1498      H1503   1.084       .  S
C1499      C1500   1.414       .  A
C1499      O1504   1.372       .  S
C1500      C1805   1.406       .  A
C1500      C1525   1.486       .  S
C1501      C1804   1.406   1_554  A
C1501      C1806   1.397       .  A
C1501      H1505   1.084       .  S
C1502      C1805   1.398       .  A
C1502      O1810   1.372       .  S
O1504      H1508   0.992       .  S
O1506      C1806   1.371       .  S
O1506      H1507   0.991       .  S
C1509      C1510   1.400       .  A
C1509      C1514   1.405       .  A
C1510      C1511   1.401       .  A
C1510      H1515   1.083       .  S
C1511      C1512   1.413       .  A
C1511      O1516   1.372       .  S
C1512      C1817   1.406       .  A
C1512      C1523   1.484       .  S
C1513      C1816   1.409   1_554  A
C1513      C1818   1.401   1_554  A
C1513      H1517   1.084       .  S
C1514      C1817   1.399       .  A
C1514      O1822   1.371       .  S
O1516      H1520   0.992       .  S
O1518      C1818   1.372   1_554  S
O1518      H1519   0.992   1_554  S
C1521      C1522   1.400       .  A
C1521      C1526   1.402       .  A
C1522      C1523   1.404       .  A
C1522      H1527   1.083       .  S
C1523      C1524   1.404       .  A
C1524      C1525   1.405       .  A
C1524      H1528   1.084       .  S
C1525      C1526   1.403       .  A
C1526      H1529   1.083       .  S
C1530      C1531   1.404       .  A
C1530      C1535   1.409       .  A
C1530      C1756   1.481       .  S
C1531      C1532   1.393       .  A
C1531      H1536   1.084       .  S
C1532      C1533   1.397       .  A
C1532      C1765   1.471       .  S
C1533      C1534   1.405       .  A
C1533      H1537   1.084       .  S
C1534      C1535   1.410       .  A
C1534      C1780   1.491       .  S
C1535      H1538   1.082       .  S
C1539      C1540   1.404       .  A
C1539      C1544   1.406       .  A
C1539      C1741   1.476       .  S
C1540      C1541   1.399       .  A
C1540      H1545   1.084       .  S
C1541      C1542   1.402       .  A
C1541      C1732   1.481       .  S
C1542      C1543   1.405       .  A
C1542      H1546   1.084       .  S
C1543      C1544   1.407       .  A
C1543      C1720   1.491       .  S
C1544      H1547   1.083       .  S
C1548      C1549   1.403       .  A
C1548      C1553   1.402       .  A
C1548      C1705   1.471       .  S
C1549      C1550   1.405       .  A
C1549      H1554   1.083       .  S
C1550      C1551   1.402       .  A
C1550      C1684   1.486       .  S
C1551      C1552   1.401       .  A
C1551      H1555   1.084       .  S
C1552      C1553   1.396       .  A
C1552      C1696   1.471       .  S
C1553      H1556   1.084       .  S
O1557     Zr1569   2.451       .  S
O1557      C1559   1.289       .  A
O1558     Zr1595   2.409       .  S
O1558      C1559   1.284       .  A
C1559      C1744   1.484       .  S
O1560     Zr1572   2.451       .  S
O1560      C1562   1.290       .  A
O1561      C1562   1.284       .  A
C1562      C1717   1.469       .  S
O1563     Zr1572   2.447       .  S
O1563      C1565   1.289       .  A
O1564     Zr1595   2.411       .  S
O1564      C2173   1.283       .  A
C1565      C1813   1.470       .  S
C1565      O2172   1.285       .  A
O1566     Zr1569   2.459       .  S
O1567     Zr1596   2.409   1_565  S
O1567      C2176   1.284       .  A
C1568      C1644   1.465       .  S
C1568      O2175   1.282       .  A
Zr1569     O1570   2.435       .  S
Zr1569     O1575   2.373       .  S
Zr1569     O2184   2.364       .  S
O1570      H1613   0.990       .  S
O1571      H1612   0.990       .  S
Zr1572     O1573   2.436       .  S
Zr1572     O1574   2.434       .  S
Zr1572     O1576   2.366       .  S
Zr1572     O2183   2.378   1_545  S
Zr1572     O1600   2.371       .  S
Zr1572     O1602   2.373       .  S
O1573      H1614   0.991       .  S
O1573      H1617   0.990       .  S
O1574      H1607   0.990       .  S
O1575     Zr2180   2.376       .  S
O1575     Zr1595   2.377       .  S
O1576     Zr2177   2.365   1_545  S
O1576      H1603   0.965       .  S
O1577     Zr1589   2.425       .  S
O1577      C1579   1.285       .  A
O1578     Zr2204   2.432       .  S
O1578      C1579   1.287       .  A
C1579      C1729   1.482       .  S
O1580      C2190   1.289   1_645  A
C1582      C1630   1.466   1_655  S
C1582      O2188   1.290       .  A
O1583     Zr1592   2.442       .  S
O1583      C1585   1.288       .  A
O1584     Zr1596   2.423       .  S
O1584      C1585   1.287       .  A
C1585      C1789   1.487       .  S
O1586     Zr1589   2.439       .  S
O1586      C1588   1.287       .  A
O1587      C1588   1.283       .  A
C1588      C1801   1.466       .  S
Zr1589     O1590   2.436       .  S
Zr1589     O1591   2.435       .  S
Zr1589     O1597   2.371       .  S
Zr1589     O1598   2.360       .  S
Zr1589     O1601   2.365       .  S
Zr1589     O1599   2.377       .  S
O1590      H1610   0.990       .  S
O1590      H1615   0.990       .  S
O1591      H1611   0.990       .  S
Zr1592     O1897   2.435   1_546  S
Zr1592     O2206   2.364   1_545  S
Zr1592     O2205   2.376   1_545  S
O1593     Zr1896   2.432       .  S
O1593      H1609   0.990       .  S
O1594      H1608   0.990       .  S
Zr1595     O2208   2.383       .  S
Zr1596     O2186   2.429   1_545  S
Zr1596     O2205   2.380   1_545  S
Zr1596     O2207   2.383   1_545  S
O1597     Zr2200   2.373       .  S
O1597     Zr2204   2.378       .  S
O1597      H1605   0.966       .  S
O1598     Zr2200   2.365       .  S
O1599     Zr2204   2.384       .  S
O1600     Zr2203   2.383   1_545  S
O1600      H1604   0.965       .  S
O1601      H1606   0.965       .  S
O1619     Zr1631   2.446       .  S
O1619      C1621   1.289       .  A
O1620     Zr1657   2.405       .  S
O1620      C1621   1.284       .  A
C1621      C1708   1.480       .  S
O1622     Zr1634   2.448       .  S
O1622      C1624   1.289       .  A
O1623      C1624   1.285       .  A
C1624      C1681   1.468       .  S
O1625     Zr1634   2.438       .  S
O1625      C1627   1.288       .  A
O1626     Zr1657   2.425       .  S
O1626      C2235   1.285       .  A
C1627      C1777   1.472       .  S
C1627      O2234   1.286       .  A
O1628     Zr1631   2.448       .  S
O1629     Zr1658   2.406       .  S
O1629      C2238   1.283   1_645  A
C1630      O2237   1.284   1_455  A
Zr1631     O1632   2.434       .  S
Zr1631     O1637   2.381       .  S
Zr1631     O2246   2.366       .  S
O1632      H1675   0.990       .  S
O1633      H1674   0.990       .  S
Zr1634     O1635   2.434       .  S
Zr1634     O1636   2.435       .  S
Zr1634     O1638   2.368       .  S
Zr1634     O2245   2.373       .  S
Zr1634     O1662   2.379       .  S
Zr1634     O1664   2.378       .  S
O1635      H1676   0.990       .  S
O1635      H1679   0.990       .  S
O1636      H1669   0.990       .  S
O1637     Zr2242   2.374       .  S
O1637     Zr1657   2.378       .  S
O1638     Zr2239   2.363   1_545  S
O1638      H1665   0.965       .  S
O1639     Zr1651   2.426       .  S
O1639      C1641   1.285       .  A
O1640     Zr2266   2.418       .  S
O1640      C1641   1.284       .  A
C1641      C1693   1.466       .  S
O1642     Zr1654   2.454       .  S
O1642      C2252   1.291   1_545  A
O1643     Zr1657   2.400       .  S
C1644      O2250   1.290       .  A
O1645     Zr1654   2.449       .  S
O1645      C1647   1.289       .  A
O1646     Zr1658   2.410       .  S
O1646      C1647   1.285       .  A
C1647      C1753   1.482       .  S
O1648     Zr1651   2.429       .  S
O1648      C1650   1.286       .  A
O1649      C1650   1.284       .  A
C1650      C1768   1.467       .  S
Zr1651     O1652   2.436       .  S
Zr1651     O1653   2.436       .  S
Zr1651     O1659   2.372       .  S
Zr1651     O1660   2.366       .  S
Zr1651     O1663   2.364       .  S
Zr1651     O1661   2.364       .  S
O1652      H1672   0.991       .  S
O1652      H1677   0.990       .  S
O1653      H1673   0.990       .  S
Zr1654     O2263   2.436   1_545  S
Zr1654     O2268   2.369   1_545  S
Zr1654     O2267   2.373   1_545  S
O1655     Zr2262   2.434       .  S
O1655      H1671   0.990       .  S
O1656      H1670   0.990       .  S
Zr1657     O2270   2.381       .  S
Zr1658     O2248   2.422   1_545  S
Zr1658     O2267   2.381   1_545  S
Zr1658     O2269   2.381   1_545  S
O1659     Zr2262   2.371       .  S
O1659     Zr2266   2.379       .  S
O1659      H1667   0.965       .  S
O1660     Zr2262   2.369       .  S
O1661     Zr2266   2.378       .  S
O1662     Zr2265   2.384   1_545  S
O1662      H1666   0.965       .  S
O1663      H1668   0.965       .  S
C1681      C1682   1.398       .  A
C1681      C1686   1.406       .  A
C1682      C1683   1.399       .  A
C1682      H1687   1.083       .  S
C1683      C1684   1.413       .  A
C1683      O1688   1.372       .  S
C1684      C1685   1.407       .  A
C1685      C1686   1.400       .  A
C1685      H1689   1.084       .  S
C1686      O1690   1.372       .  S
O1688      H1692   0.991       .  S
O1690      H1691   0.992       .  S
C1693      C1694   1.400       .  A
C1693      C1698   1.408       .  A
C1694      C1695   1.388       .  A
C1694      H1699   1.084       .  S
C1695      C1696   1.407       .  A
C1695      O1700   1.372       .  S
C1696      C1697   1.404       .  A
C1697      C1698   1.404       .  A
C1697      H1701   1.083       .  S
C1698      O1702   1.371       .  S
O1700      H1704   0.992       .  S
O1702      H1703   0.992       .  S
C1705      C1706   1.401       .  A
C1705      C1710   1.406       .  A
C1706      C1707   1.403       .  A
C1706      H1711   1.083       .  S
C1707      C1708   1.414       .  A
C1707      O1712   1.371       .  S
C1708      C1709   1.406       .  A
C1709      C1710   1.392       .  A
C1709      H1713   1.084       .  S
C1710      O1714   1.373       .  S
O1712      H1716   0.992       .  S
O1714      H1715   0.992       .  S
C1717      C1718   1.399       .  A
C1717      C1722   1.405       .  A
C1718      C1719   1.400       .  A
C1718      H1723   1.084       .  S
C1719      C1720   1.416       .  A
C1719      O1724   1.371       .  S
C1720      C1721   1.408       .  A
C1721      C1722   1.399       .  A
C1721      H1725   1.084       .  S
C1722      O1726   1.372       .  S
O1724      H1728   0.992       .  S
O1726      H1727   0.992       .  S
C1729      C1730   1.407       .  A
C1729      C1734   1.412       .  A
C1730      C1731   1.406       .  A
C1730      H1735   1.083       .  S
C1731      C1732   1.409       .  A
C1731      O1736   1.372       .  S
C1732      C1733   1.401       .  A
C1733      C1734   1.392       .  A
C1733      H1737   1.084       .  S
C1734      O1738   1.372       .  S
O1736      H1740   0.992       .  S
O1738      H1739   0.992       .  S
C1741      C1742   1.400       .  A
C1741      C1746   1.405       .  A
C1742      C1743   1.396       .  A
C1742      H1747   1.084       .  S
C1743      C1744   1.413       .  A
C1743      O1748   1.372       .  S
C1744      C1745   1.409       .  A
C1745      C1746   1.403       .  A
C1745      H1749   1.083       .  S
C1746      O1750   1.371       .  S
O1748      H1752   0.992       .  S
O1750      H1751   0.991       .  S
C1753      C1754   1.408       .  A
C1753      C1758   1.411       .  A
C1754      C1755   1.405       .  A
C1754      H1759   1.083       .  S
C1755      C1756   1.408       .  A
C1755      O1760   1.371       .  S
C1756      C1757   1.402       .  A
C1757      C1758   1.392       .  A
C1757      H1761   1.084       .  S
C1758      O1762   1.373       .  S
O1760      H1764   0.991       .  S
O1762      H1763   0.992       .  S
C1765      C1766   1.403       .  A
C1765      C1770   1.406       .  A
C1766      C1767   1.402       .  A
C1766      H1771   1.084       .  S
C1767      C1768   1.409       .  A
C1767      O1772   1.371       .  S
C1768      C1769   1.400       .  A
C1769      C1770   1.392       .  A
C1769      H1773   1.084       .  S
C1770      O1774   1.372       .  S
O1772      H1776   0.992       .  S
O1774      H1775   0.992       .  S
C1777      C1778   1.401       .  A
C1777      C1782   1.405       .  A
C1778      C1779   1.402       .  A
C1778      H1783   1.084       .  S
C1779      C1780   1.415       .  A
C1779      O1784   1.371       .  S
C1780      C1781   1.408       .  A
C1781      C1782   1.397       .  A
C1781      H1785   1.084       .  S
C1782      O1786   1.372       .  S
O1784      H1788   0.991       .  S
O1786      H1787   0.992       .  S
C1789      C1790   1.406       .  A
C1789      C1794   1.416   1_556  A
C1790      C1791   1.395       .  A
C1790      H1795   1.084       .  S
C1791      C1792   1.406       .  A
C1791      O1796   1.372       .  S
C1792      C1793   1.400   1_556  A
C1793      C1794   1.405       .  A
C1793      H1797   1.083       .  S
C1794      O1798   1.371       .  S
O1796      H1800   0.992       .  S
O1798      H1799   0.991       .  S
C1801      C1802   1.399       .  A
C1801      C1806   1.405   1_556  A
C1802      C1803   1.399       .  A
C1802      H1807   1.084       .  S
C1803      C1804   1.415       .  A
C1803      O1808   1.372       .  S
C1805      H1809   1.084       .  S
O1808      H1812   0.992       .  S
O1810      H1811   0.991       .  S
C1813      C1814   1.398       .  A
C1813      C1818   1.405       .  A
C1814      C1815   1.400       .  A
C1814      H1819   1.082       .  S
C1815      C1816   1.413       .  A
C1815      O1820   1.372       .  S
C1817      H1821   1.084       .  S
O1820      H1824   0.992       .  S
O1822      H1823   0.992       .  S
C1825      C1826   1.401       .  A
C1825      C1830   1.401       .  A
C1825      C2400   1.474       .  S
C1826      C1827   1.405       .  A
C1826      H1831   1.083       .  S
C1827      C1828   1.404       .  A
C1827      C2424   1.483       .  S
C1828      C1829   1.404       .  A
C1828      H1832   1.084       .  S
C1829      C1830   1.402       .  A
C1829      C2412   1.484       .  S
C1830      H1833   1.083   1_556  S
C1834      C1835   1.401       .  A
C1834      C1839   1.407       .  A
C1834      C2060   1.473       .  S
C1835      C1836   1.391       .  A
C1835      H1840   1.085       .  S
C1836      C1837   1.397       .  A
C1836      C2069   1.470       .  S
C1837      C1838   1.405       .  A
C1837      H1841   1.084       .  S
C1838      C1839   1.408       .  A
C1838      C2084   1.489       .  S
C1839      H1842   1.082       .  S
C1843      C1844   1.405       .  A
C1843      C1848   1.404       .  A
C1843      C2045   1.474       .  S
C1844      C1845   1.400       .  A
C1844      H1849   1.084       .  S
C1845      C1846   1.403       .  A
C1845      C2036   1.483       .  S
C1846      C1847   1.403       .  A
C1846      H1850   1.084       .  S
C1847      C1848   1.405       .  A
C1847      C2024   1.489       .  S
C1848      H1851   1.083       .  S
C1852      C1853   1.405       .  A
C1852      C1857   1.402       .  A
C1852      C2009   1.473       .  S
C1853      C1854   1.405       .  A
C1853      H1858   1.083       .  S
C1854      C1855   1.402       .  A
C1854      C1988   1.485       .  S
C1855      C1856   1.400       .  A
C1855      H1859   1.084       .  S
C1856      C1857   1.395       .  A
C1856      C2000   1.469       .  S
C1857      H1860   1.084       .  S
O1861     Zr1873   2.446       .  S
O1861      C1863   1.289       .  A
O1862     Zr1899   2.413       .  S
O1862      C1863   1.285       .  A
C1863      C2048   1.483       .  S
O1864     Zr1876   2.444       .  S
O1864      C1866   1.288       .  A
O1865      C1866   1.285       .  A
C1866      C2021   1.469       .  S
O1867     Zr1876   2.444       .  S
O1867      C1869   1.288       .  A
O1868     Zr1899   2.417   1_545  S
C1869      C2117   1.467       .  S
O1870     Zr1873   2.451       .  S
O1871     Zr1900   2.406       .  S
C1872      C1948   1.465       .  S
Zr1873     O1874   2.435       .  S
Zr1873     O1879   2.376       .  S
O1874      H1917   0.990   1_565  S
O1875      H1916   0.990       .  S
Zr1876     O1877   2.437       .  S
Zr1876     O1878   2.436       .  S
Zr1876     O1880   2.370       .  S
Zr1876     O1904   2.368       .  S
Zr1876     O1906   2.374       .  S
O1877      H1918   0.991       .  S
O1877      H1921   0.990       .  S
O1878      H1911   0.990       .  S
O1879     Zr1899   2.377       .  S
O1880      H1907   0.965       .  S
O1881     Zr1893   2.431       .  S
O1881      C1883   1.287       .  A
O1882      C1883   1.286       .  A
C1883      C2033   1.482       .  S
O1884     Zr2200   2.451   1_554  S
O1885     Zr2203   2.416   1_554  S
C1886      C1934   1.472   1_655  S
O1887     Zr1896   2.444       .  S
O1887      C1889   1.288       .  A
O1888     Zr1900   2.418       .  S
O1888      C1889   1.286       .  A
C1889      C2093   1.477       .  S
O1890     Zr1893   2.434       .  S
O1890      C1892   1.286       .  A
O1891      C1892   1.284       .  A
C1892      C2105   1.464       .  S
Zr1893     O1894   2.436       .  S
Zr1893     O1895   2.435       .  S
Zr1893     O1901   2.370       .  S
Zr1893     O1902   2.362       .  S
Zr1893     O1905   2.366       .  S
Zr1893     O1903   2.371       .  S
O1894      H1914   0.990       .  S
O1894      H1919   0.990       .  S
O1895      H1915   0.990       .  S
Zr1896     O2188   2.450       .  S
O1897      H1913   0.990       .  S
O1898      H1912   0.990       .  S
Zr1899     O2189   2.415       .  S
O1901      H1909   0.966       .  S
O1904      H1908   0.965       .  S
O1905      H1910   0.965       .  S
O1923     Zr1935   2.444       .  S
O1923      C1925   1.288       .  A
O1924     Zr1961   2.402       .  S
O1924      C1925   1.283       .  A
C1925      C2012   1.473       .  S
O1926     Zr1938   2.451       .  S
O1926      C1928   1.289       .  A
O1927      C1928   1.284       .  A
C1928      C1985   1.466       .  S
O1929     Zr1938   2.444       .  S
O1929      C1931   1.289       .  A
O1930     Zr1961   2.417   1_545  S
C1931      C2081   1.473       .  S
O1932     Zr1935   2.450       .  S
O1933     Zr1962   2.417       .  S
Zr1935     O1936   2.437       .  S
Zr1935     O1941   2.377   1_565  S
O1936      H1979   0.990   1_565  S
O1937      H1978   0.990   1_455  S
Zr1938     O1939   2.433       .  S
Zr1938     O1940   2.437       .  S
Zr1938     O1942   2.374       .  S
Zr1938     O1966   2.377       .  S
Zr1938     O1968   2.373       .  S
O1939      H1980   0.990       .  S
O1939      H1983   0.990       .  S
O1940      H1973   0.990       .  S
O1941     Zr1961   2.378   1_545  S
O1942      H1969   0.966       .  S
O1943     Zr1955   2.416       .  S
O1943      C1945   1.283       .  A
O1944      C1945   1.284       .  A
C1945      C1997   1.465       .  S
O1946     Zr1958   2.458       .  S
O1947     Zr1961   2.404       .  S
O1949     Zr1958   2.445       .  S
O1949      C1951   1.289       .  A
O1950     Zr1962   2.404       .  S
O1950      C1951   1.284       .  A
C1951      C2057   1.478       .  S
O1952     Zr1955   2.417       .  S
O1952      C1954   1.284       .  A
O1953      C1954   1.284       .  A
C1954      C2072   1.467       .  S
Zr1955     O1956   2.436       .  S
Zr1955     O1957   2.436       .  S
Zr1955     O1963   2.370       .  S
Zr1955     O1964   2.366       .  S
Zr1955     O1967   2.364       .  S
Zr1955     O1965   2.365       .  S
O1956      H1976   0.990       .  S
O1956      H1981   0.990       .  S
O1957      H1977   0.990       .  S
O1959      H1975   0.990       .  S
O1960      H1974   0.990       .  S
O1963      H1971   0.965       .  S
O1966      H1970   0.966       .  S
O1967      H1972   0.965       .  S
C1985      C1986   1.398       .  A
C1985      C1990   1.405       .  A
C1986      C1987   1.400       .  A
C1986      H1991   1.083       .  S
C1987      C1988   1.414       .  A
C1987      O1992   1.372       .  S
C1988      C1989   1.407       .  A
C1989      C1990   1.399       .  A
C1989      H1993   1.084       .  S
C1990      O1994   1.372       .  S
O1992      H1996   0.991       .  S
O1994      H1995   0.992       .  S
C1997      C1998   1.401       .  A
C1997      C2002   1.408       .  A
C1998      C1999   1.388       .  A
C1998      H2003   1.084       .  S
C1999      C2000   1.407       .  A
C1999      O2004   1.373       .  S
C2000      C2001   1.404       .  A
C2001      C2002   1.403       .  A
C2001      H2005   1.083       .  S
C2002      O2006   1.371       .  S
O2004      H2008   0.992       .  S
O2006      H2007   0.991       .  S
C2009      C2010   1.402       .  A
C2009      C2014   1.409       .  A
C2010      C2011   1.400       .  A
C2010      H2015   1.083       .  S
C2011      C2012   1.410       .  A
C2011      O2016   1.371       .  S
C2012      C2013   1.404       .  A
C2013      C2014   1.393       .  A
C2013      H2017   1.084       .  S
C2014      O2018   1.373       .  S
O2016      H2020   0.992       .  S
O2018      H2019   0.992       .  S
C2021      C2022   1.400       .  A
C2021      C2026   1.405       .  A
C2022      C2023   1.402       .  A
C2022      H2027   1.084       .  S
C2023      C2024   1.416       .  A
C2023      O2028   1.372       .  S
C2024      C2025   1.406       .  A
C2025      C2026   1.397       .  A
C2025      H2029   1.084       .  S
C2026      O2030   1.372       .  S
O2028      H2032   0.992       .  S
O2030      H2031   0.992       .  S
C2033      C2034   1.409       .  A
C2033      C2038   1.410       .  A
C2034      C2035   1.407       .  A
C2034      H2039   1.084       .  S
C2035      C2036   1.410       .  A
C2035      O2040   1.372       .  S
C2036      C2037   1.401       .  A
C2037      C2038   1.390       .  A
C2037      H2041   1.084       .  S
C2038      O2042   1.372       .  S
O2040      H2044   0.992       .  S
O2042      H2043   0.992       .  S
C2045      C2046   1.400       .  A
C2045      C2050   1.405       .  A
C2046      C2047   1.395       .  A
C2046      H2051   1.084       .  S
C2047      C2048   1.412       .  A
C2047      O2052   1.372       .  S
C2048      C2049   1.409       .  A
C2049      C2050   1.403       .  A
C2049      H2053   1.083       .  S
C2050      O2054   1.372       .  S
O2052      H2056   0.992       .  S
O2054      H2055   0.991       .  S
C2057      C2058   1.408       .  A
C2057      C2062   1.412       .  A
C2058      C2059   1.402       .  A
C2058      H2063   1.083       .  S
C2059      C2060   1.405       .  A
C2059      O2064   1.371       .  S
C2060      C2061   1.401       .  A
C2061      C2062   1.390       .  A
C2061      H2065   1.084       .  S
C2062      O2066   1.373       .  S
O2064      H2068   0.991       .  S
O2066      H2067   0.993       .  S
C2069      C2070   1.403       .  A
C2069      C2074   1.407       .  A
C2070      C2071   1.400       .  A
C2070      H2075   1.084       .  S
C2071      C2072   1.408       .  A
C2071      O2076   1.371       .  S
C2072      C2073   1.402       .  A
C2073      C2074   1.392       .  A
C2073      H2077   1.084       .  S
C2074      O2078   1.373       .  S
O2076      H2080   0.992       .  S
O2078      H2079   0.992       .  S
C2081      C2082   1.402       .  A
C2081      C2086   1.405       .  A
C2082      C2083   1.403       .  A
C2082      H2087   1.084       .  S
C2083      C2084   1.414       .  A
C2083      O2088   1.371       .  S
C2084      C2085   1.407       .  A
C2085      C2086   1.397       .  A
C2085      H2089   1.084       .  S
C2086      O2090   1.372       .  S
O2088      H2092   0.991       .  S
O2090      H2091   0.992       .  S
C2093      C2094   1.402       .  A
C2093      C2098   1.411       .  A
C2094      C2095   1.393       .  A
C2094      H2099   1.084       .  S
C2095      C2096   1.409       .  A
C2095      O2100   1.372       .  S
C2096      C2097   1.404       .  A
C2096      C2129   1.479       .  S
C2097      C2098   1.405       .  A
C2097      H2101   1.084       .  S
C2098      O2102   1.372       .  S
O2100      H2104   0.992       .  S
O2102      H2103   0.991       .  S
C2105      C2106   1.398       .  A
C2105      C2110   1.405       .  A
C2106      C2107   1.398       .  A
C2106      H2111   1.084       .  S
C2107      C2108   1.414       .  A
C2107      O2112   1.371       .  S
C2108      C2413   1.407       .  A
C2108      C2133   1.486       .  S
C2109      C2412   1.406   1_554  A
C2109      C2414   1.397       .  A
C2109      H2113   1.084       .  S
C2110      C2413   1.398       .  A
C2110      O2418   1.372       .  S
O2112      H2116   0.992       .  S
O2114      C2414   1.372       .  S
O2114      H2115   0.991       .  S
C2117      C2118   1.399       .  A
C2117      C2122   1.404       .  A
C2118      C2119   1.400       .  A
C2118      H2123   1.083       .  S
C2119      C2120   1.413       .  A
C2119      O2124   1.372       .  S
C2120      C2425   1.407       .  A
C2120      C2131   1.487       .  S
C2121      C2424   1.407   1_554  A
C2121      C2426   1.398   1_554  A
C2121      H2125   1.084       .  S
C2122      C2425   1.400       .  A
C2122      O2430   1.372       .  S
O2124      H2128   0.992       .  S
O2126      C2426   1.372   1_554  S
O2126      H2127   0.992   1_554  S
C2129      C2130   1.403       .  A
C2129      C2134   1.403       .  A
C2130      C2131   1.406       .  A
C2130      H2135   1.083       .  S
C2131      C2132   1.404       .  A
C2132      C2133   1.404       .  A
C2132      H2136   1.084       .  S
C2133      C2134   1.402       .  A
C2134      H2137   1.083       .  S
C2138      C2139   1.405       .  A
C2138      C2143   1.409       .  A
C2138      C2364   1.480       .  S
C2139      C2140   1.395       .  A
C2139      H2144   1.084       .  S
C2140      C2141   1.397       .  A
C2140      C2373   1.474       .  S
C2141      C2142   1.404       .  A
C2141      H2145   1.084       .  S
C2142      C2143   1.409       .  A
C2142      C2388   1.490       .  S
C2143      H2146   1.082       .  S
C2147      C2148   1.405       .  A
C2147      C2152   1.405       .  A
C2147      C2349   1.476       .  S
C2148      C2149   1.400       .  A
C2148      H2153   1.084       .  S
C2149      C2150   1.403       .  A
C2149      C2340   1.484       .  S
C2150      C2151   1.405       .  A
C2150      H2154   1.084       .  S
C2151      C2152   1.405       .  A
C2151      C2328   1.489       .  S
C2152      H2155   1.083       .  S
C2156      C2157   1.405       .  A
C2156      C2161   1.403       .  A
C2156      C2313   1.477       .  S
C2157      C2158   1.404       .  A
C2157      H2162   1.083       .  S
C2158      C2159   1.402       .  A
C2158      C2292   1.488       .  S
C2159      C2160   1.401       .  A
C2159      H2163   1.084       .  S
C2160      C2161   1.398       .  A
C2160      C2304   1.472       .  S
C2161      H2164   1.084       .  S
O2165     Zr2177   2.444       .  S
O2165      C2167   1.288       .  A
O2166     Zr2203   2.419       .  S
O2166      C2167   1.286       .  A
C2167      C2352   1.485       .  S
O2168     Zr2180   2.449       .  S
O2168      C2170   1.289       .  A
O2169      C2170   1.284       .  A
C2170      C2325   1.466       .  S
O2171     Zr2180   2.442       .  S
O2171      C2173   1.288       .  A
O2172     Zr2203   2.418   1_545  S
C2173      C2421   1.463       .  S
O2174     Zr2177   2.452       .  S
O2175     Zr2204   2.402       .  S
C2176      C2252   1.469       .  S
Zr2177     O2178   2.434       .  S
Zr2177     O2183   2.378       .  S
O2178      H2221   0.990   1_565  S
O2179      H2220   0.990       .  S
Zr2180     O2181   2.437       .  S
Zr2180     O2182   2.434       .  S
Zr2180     O2184   2.365       .  S
Zr2180     O2208   2.369       .  S
Zr2180     O2210   2.372       .  S
O2181      H2222   0.991       .  S
O2181      H2225   0.990       .  S
O2182      H2215   0.990       .  S
O2183     Zr2203   2.378       .  S
O2184      H2211   0.965       .  S
O2185     Zr2197   2.433       .  S
O2185      C2187   1.287       .  A
O2186      C2187   1.287       .  A
C2187      C2337   1.483       .  S
C2190      C2238   1.463       .  S
O2191     Zr2200   2.443       .  S
O2191      C2193   1.288       .  A
O2192     Zr2204   2.418       .  S
O2192      C2193   1.286       .  A
C2193      C2397   1.481       .  S
O2194     Zr2197   2.434       .  S
O2194      C2196   1.286       .  A
O2195      C2196   1.283       .  A
C2196      C2409   1.462       .  S
Zr2197     O2198   2.435       .  S
Zr2197     O2199   2.435       .  S
Zr2197     O2205   2.370       .  S
Zr2197     O2206   2.364       .  S
Zr2197     O2209   2.368       .  S
Zr2197     O2207   2.373       .  S
O2198      H2218   0.990       .  S
O2198      H2223   0.990       .  S
O2199      H2219   0.990       .  S
O2201      H2217   0.990       .  S
O2202      H2216   0.990       .  S
O2205      H2213   0.966       .  S
O2208      H2212   0.964       .  S
O2209      H2214   0.966       .  S
O2227     Zr2239   2.437       .  S
O2227      C2229   1.287       .  A
O2228     Zr2265   2.409       .  S
O2228      C2229   1.286       .  A
C2229      C2316   1.474       .  S
O2230     Zr2242   2.444       .  S
O2230      C2232   1.288       .  A
O2231      C2232   1.284       .  A
C2232      C2289   1.465       .  S
O2233     Zr2242   2.441       .  S
O2233      C2235   1.288       .  A
O2234     Zr2265   2.425   1_545  S
C2235      C2385   1.472       .  S
O2236     Zr2239   2.437       .  S
O2237     Zr2266   2.410       .  S
Zr2239     O2240   2.435       .  S
Zr2239     O2245   2.379   1_565  S
O2240      H2283   0.990   1_565  S
O2241      H2282   0.990   1_655  S
Zr2242     O2243   2.434       .  S
Zr2242     O2244   2.436       .  S
Zr2242     O2246   2.371       .  S
Zr2242     O2270   2.375       .  S
Zr2242     O2272   2.373       .  S
O2243      H2284   0.990       .  S
O2243      H2287   0.990       .  S
O2244      H2277   0.990       .  S
O2245     Zr2265   2.380   1_545  S
O2246      H2273   0.965       .  S
O2247     Zr2259   2.426       .  S
O2247      C2249   1.285       .  A
O2248      C2249   1.284       .  A
C2249      C2301   1.466       .  S
O2250     Zr2262   2.450       .  S
O2251     Zr2265   2.406       .  S
O2253     Zr2262   2.448       .  S
O2253      C2255   1.289       .  A
O2254     Zr2266   2.409       .  S
O2254      C2255   1.284       .  A
C2255      C2361   1.482       .  S
O2256     Zr2259   2.428       .  S
O2256      C2258   1.286       .  A
O2257      C2258   1.284       .  A
C2258      C2376   1.470       .  S
Zr2259     O2260   2.435       .  S
Zr2259     O2261   2.437       .  S
Zr2259     O2267   2.369       .  S
Zr2259     O2268   2.369       .  S
Zr2259     O2271   2.366       .  S
Zr2259     O2269   2.366       .  S
O2260      H2280   0.990       .  S
O2260      H2285   0.990       .  S
O2261      H2281   0.990       .  S
O2263      H2279   0.990       .  S
O2264      H2278   0.990       .  S
O2267      H2275   0.965       .  S
O2270      H2274   0.965       .  S
O2271      H2276   0.965       .  S
C2289      C2290   1.396       .  A
C2289      C2294   1.405       .  A
C2290      C2291   1.397       .  A
C2290      H2295   1.084       .  S
C2291      C2292   1.415       .  A
C2291      O2296   1.370       .  S
C2292      C2293   1.407       .  A
C2293      C2294   1.399       .  A
C2293      H2297   1.084       .  S
C2294      O2298   1.372       .  S
O2296      H2300   0.991       .  S
O2298      H2299   0.992       .  S
C2301      C2302   1.400       .  A
C2301      C2306   1.408       .  A
C2302      C2303   1.389       .  A
C2302      H2307   1.084       .  S
C2303      C2304   1.406       .  A
C2303      O2308   1.372       .  S
C2304      C2305   1.405       .  A
C2305      C2306   1.406       .  A
C2305      H2309   1.083       .  S
C2306      O2310   1.371       .  S
O2308      H2312   0.992       .  S
O2310      H2311   0.991       .  S
C2313      C2314   1.404       .  A
C2313      C2318   1.408       .  A
C2314      C2315   1.403       .  A
C2314      H2319   1.083       .  S
C2315      C2316   1.411       .  A
C2315      O2320   1.371       .  S
C2316      C2317   1.401       .  A
C2317      C2318   1.392       .  A
C2317      H2321   1.084       .  S
C2318      O2322   1.372       .  S
O2320      H2324   0.992       .  S
O2322      H2323   0.992       .  S
C2325      C2326   1.399       .  A
C2325      C2330   1.404       .  A
C2326      C2327   1.401       .  A
C2326      H2331   1.084       .  S
C2327      C2328   1.416       .  A
C2327      O2332   1.371       .  S
C2328      C2329   1.407       .  A
C2329      C2330   1.397       .  A
C2329      H2333   1.084       .  S
C2330      O2334   1.371       .  S
O2332      H2336   0.992       .  S
O2334      H2335   0.992       .  S
C2337      C2338   1.408       .  A
C2337      C2342   1.410       .  A
C2338      C2339   1.408       .  A
C2338      H2343   1.084       .  S
C2339      C2340   1.410       .  A
C2339      O2344   1.372       .  S
C2340      C2341   1.401       .  A
C2341      C2342   1.392       .  A
C2341      H2345   1.084       .  S
C2342      O2346   1.371       .  S
O2344      H2348   0.992       .  S
O2346      H2347   0.992       .  S
C2349      C2350   1.399       .  A
C2349      C2354   1.406       .  A
C2350      C2351   1.395       .  A
C2350      H2355   1.084       .  S
C2351      C2352   1.412       .  A
C2351      O2356   1.372       .  S
C2352      C2353   1.410       .  A
C2353      C2354   1.404       .  A
C2353      H2357   1.083       .  S
C2354      O2358   1.372       .  S
O2356      H2360   0.992       .  S
O2358      H2359   0.991       .  S
C2361      C2362   1.408       .  A
C2361      C2366   1.411       .  A
C2362      C2363   1.405       .  A
C2362      H2367   1.083       .  S
C2363      C2364   1.408       .  A
C2363      O2368   1.371       .  S
C2364      C2365   1.402       .  A
C2365      C2366   1.393       .  A
C2365      H2369   1.084       .  S
C2366      O2370   1.373       .  S
O2368      H2372   0.991       .  S
O2370      H2371   0.992       .  S
C2373      C2374   1.402       .  A
C2373      C2378   1.408       .  A
C2374      C2375   1.401       .  A
C2374      H2379   1.084       .  S
C2375      C2376   1.410       .  A
C2375      O2380   1.371       .  S
C2376      C2377   1.401       .  A
C2377      C2378   1.393       .  A
C2377      H2381   1.084       .  S
C2378      O2382   1.373       .  S
O2380      H2384   0.992       .  S
O2382      H2383   0.992       .  S
C2385      C2386   1.402       .  A
C2385      C2390   1.405       .  A
C2386      C2387   1.403       .  A
C2386      H2391   1.084       .  S
C2387      C2388   1.414       .  A
C2387      O2392   1.371       .  S
C2388      C2389   1.407       .  A
C2389      C2390   1.397       .  A
C2389      H2393   1.084       .  S
C2390      O2394   1.372       .  S
O2392      H2396   0.991       .  S
O2394      H2395   0.992       .  S
C2397      C2398   1.404       .  A
C2397      C2402   1.414       .  A
C2398      C2399   1.394       .  A
C2398      H2403   1.084       .  S
C2399      C2400   1.407       .  A
C2399      O2404   1.372       .  S
C2400      C2401   1.401   1_556  A
C2401      C2402   1.404   1_554  A
C2401      H2405   1.083       .  S
C2402      O2406   1.371   1_556  S
O2404      H2408   0.992       .  S
O2406      H2407   0.991       .  S
C2409      C2410   1.397       .  A
C2409      C2414   1.404   1_556  A
C2410      C2411   1.397       .  A
C2410      H2415   1.084       .  S
C2411      C2412   1.414       .  A
C2411      O2416   1.371       .  S
C2413      H2417   1.084       .  S
O2416      H2420   0.992       .  S
O2418      H2419   0.991       .  S
C2421      C2422   1.398       .  A
C2421      C2426   1.403       .  A
C2422      C2423   1.399       .  A
C2422      H2427   1.083       .  S
C2423      C2424   1.413       .  A
C2423      O2428   1.372       .  S
C2425      H2429   1.084       .  S
O2428      H2432   0.992       .  S
O2430      H2431   0.992       .  S
