geometry optimzed in LAMMPS
_audit_creation_date              2020-12-01 
_audit_creation_method            'lammps2cif' 
_symmetry_space_group_name_H-M    'P1' 
_symmetry_Int_Tables_number       1 
_symmetry_cell_setting            triclinic 
loop_ 
_symmetry_equiv_pos_as_xyz 
  x,y,z 
_cell_length_a                    48.3528351 
_cell_length_b                    48.18875109190281 
_cell_length_c                    73.9005325616034 
_cell_angle_alpha                 89.9127402934662 
_cell_angle_beta                  90.22306989363682 
_cell_angle_gamma                 120.00882541280279 
loop_ 
_atom_site_label 
_atom_site_type_symbol 
_atom_site_fract_x 
_atom_site_fract_y 
_atom_site_fract_z 
_atom_site_charge 
N1          N  0.65302673  0.81098415  0.27906715    -0.27300
N2          N  0.67872639  0.83208480  0.28801527    -0.35100
C3          C  0.67103071  0.83145681  0.30560316     0.01100
C4          C  0.63897549  0.80873977  0.30773288     0.07100
C5          C  0.62855267  0.79617680  0.29062739    -0.06000
H6          H  0.68733119  0.84683178  0.31597280     0.07700
H7          H  0.60458147  0.77817064  0.28674998     0.08900
Cu8        Cu  0.72259706  0.86037825  0.27529678     0.44200
Cu9        Cu  0.65074006  0.80524761  0.25128789     0.42000
Cu10       Cu  0.72243310  0.85063010  0.22590112     0.43900
N11         N  0.76328882  0.88206485  0.25905454    -0.34700
N12         N  0.76318384  0.87773981  0.24135060    -0.28900
C13         C  0.79342629  0.89343324  0.23526164    -0.05000
C14         C  0.81341170  0.90865665  0.24973886     0.07200
C15         C  0.79367385  0.90089978  0.26461825     0.01000
H16         H  0.80034075  0.89341015  0.22135740     0.08600
H17         H  0.80092165  0.90760443  0.27853940     0.07700
N18         N  0.67790693  0.82383522  0.21386708    -0.36100
N19         N  0.65149563  0.80709796  0.22333087    -0.28300
C20         C  0.62634932  0.79382075  0.21198539    -0.03500
C21         C  0.63747205  0.80257289  0.19451271     0.05100
C22         C  0.67029243  0.82157209  0.19618408     0.03200
H23         H  0.60171598  0.77952827  0.21617559     0.08300
H24         H  0.68727207  0.83340336  0.18539423     0.07100
N25         N  0.01282501  0.17358835  0.27675016    -0.27300
N26         N  0.99636894  0.14708338  0.28626627    -0.35100
C27         C  0.99881451  0.15482121  0.30393485     0.01100
C28         C  0.01764344  0.18782746  0.30552318     0.07100
C29         C  0.02603600  0.19888864  0.28800100    -0.06000
H30         H  0.98737948  0.13778567  0.31478833     0.07700
H31         H  0.04018381  0.22358075  0.28371146     0.08900
Cu32       Cu  0.97026512  0.10229340  0.27412310     0.44200
Cu33       Cu  0.01490996  0.17406368  0.24887057     0.42000
Cu34       Cu  0.96328672  0.10077403  0.22441408     0.43900
N35         N  0.94462402  0.06086406  0.25876871    -0.34700
N36         N  0.94140127  0.06024986  0.24093652    -0.28900
C37         C  0.92331827  0.02956636  0.23554521    -0.05000
C38         C  0.91493026  0.01013335  0.25066729     0.07200
C39         C  0.92893037  0.03064137  0.26511566     0.01000
H40         H  0.91741042  0.02193304  0.22161359     0.08600
H41         H  0.92803131  0.02409848  0.27920127     0.07700
N42         N  0.99111561  0.14512996  0.21194156    -0.36100
N43         N  0.01057972  0.17138444  0.22107188    -0.28300
C44         C  0.02542617  0.19600331  0.20952936    -0.03500
C45         C  0.01466610  0.18498958  0.19224479     0.05100
C46         C  0.99296113  0.15255515  0.19422608     0.03200
H47         H  0.04243825  0.22032163  0.21349210     0.08300
H48         H  0.97926948  0.13574163  0.18361969     0.07100
N49         N  0.00823101  0.84146999  0.22281023    -0.27300
N50         N  0.98507200  0.84370193  0.21460309    -0.35100
C51         C  0.98330152  0.83451042  0.19724956     0.01100
C52         C  0.00656025  0.82624237  0.19442272     0.07100
C53         C  0.02196704  0.83108752  0.21089819    -0.06000
H54         H  0.96615369  0.83360124  0.18747305     0.07700
H55         H  0.04135601  0.82678035  0.21409523     0.08900
Cu56       Cu  0.95739508  0.85963661  0.22737401     0.44200
Cu57       Cu  0.01842779  0.84962796  0.25016389     0.42000
Cu58       Cu  0.97109504  0.87434257  0.27559330     0.43900
N59         N  0.93770561  0.88134707  0.24282134    -0.34700
N60         N  0.94361849  0.88766592  0.26028248    -0.28900
C61         C  0.92976188  0.90434897  0.26590837    -0.05000
C62         C  0.91413698  0.90832740  0.25134057     0.07200
C63         C  0.91953511  0.89345977  0.23693409     0.01000
H64         H  0.93118688  0.91312376  0.27954406     0.08600
H65         H  0.91177521  0.89246379  0.22307933     0.07700
N66         N  0.00095051  0.86022855  0.28751417    -0.36100
N67         N  0.01871345  0.85164843  0.27815510    -0.28300
C68         C  0.03390025  0.84210643  0.28968165    -0.03500
C69         C  0.02525594  0.84485588  0.30711345     0.05100
C70         C  0.00438601  0.85643363  0.30526152     0.03200
H71         H  0.04907179  0.83265450  0.28565192     0.08300
H72         H  0.99170760  0.86061359  0.31596948     0.07100
C73         C  0.84837535  0.92629590  0.24967214     0.80200
N74         N  0.86469964  0.95884875  0.25021096    -0.78100
C75         C  0.89712204  0.97501691  0.25112489     0.82700
N76         N  0.91311574  0.95854532  0.25191596    -0.78000
C77         C  0.89685691  0.92603910  0.25100449     0.82800
N78         N  0.86452874  0.90997927  0.24967180    -0.79700
N79         N  0.61872668  0.08322455  0.93532955    -0.27300
N80         N  0.62253055  0.10751510  0.94547856    -0.35100
C81         C  0.59626850  0.09788371  0.95567592     0.01100
C82         C  0.57494404  0.06610047  0.95171407     0.07100
C83         C  0.58991057  0.05759878  0.93875675    -0.06000
H84         H  0.59313241  0.11275209  0.96546254     0.07700
H85         H  0.58079023  0.03429408  0.93255335     0.08900
Cu86       Cu  0.66385488  0.15225416  0.94589612     0.44200
Cu87       Cu  0.65312627  0.08515966  0.91772468     0.42000
Cu88       Cu  0.72899404  0.15808871  0.91952681     0.43900
N89         N  0.70932326  0.19248338  0.94569328    -0.34700
N90         N  0.73332096  0.19389443  0.93643985    -0.28900
C91         C  0.75991850  0.22198564  0.93972593    -0.05000
C92         C  0.75232850  0.23932725  0.95153064     0.07200
C93         C  0.72003521  0.21993215  0.95504229     0.01000
H94         H  0.78312880  0.22908558  0.93406806     0.08600
H95         H  0.70554138  0.22519689  0.96394708     0.07700
N96         N  0.71884665  0.12154042  0.90164149    -0.36100
N97         N  0.69117580  0.09452658  0.90085607    -0.28300
C98         C  0.69187731  0.07689327  0.88693077    -0.03500
C99         C  0.72136169  0.09390148  0.87855556     0.05100
C100        C  0.73775316  0.12203163  0.88826336     0.03200
H101        H  0.67203490  0.05400661  0.88279960     0.08300
H102        H  0.76124203  0.14201657  0.88535580     0.07100
N103        N  0.03252231  0.34547424  0.06828328    -0.27300
N104        N  0.05087777  0.35829694  0.05398643    -0.35100
C105        C  0.03781328  0.37150159  0.04340673     0.01100
C106        C  0.01034572  0.36770219  0.05169520     0.07100
C107        C  0.00804409  0.35122262  0.06754564    -0.06000
H108        H  0.04777340  0.38322637  0.03065199     0.07700
H109        H  0.98998620  0.34400159  0.07789825     0.08900
Cu110      Cu  0.09450100  0.35985638  0.05080998     0.44200
Cu111      Cu  0.04052491  0.31882274  0.08738448     0.42000
Cu112      Cu  0.11548460  0.31907266  0.08524612     0.43900
N113        N  0.13841110  0.36144498  0.05211380    -0.34700
N114        N  0.14543577  0.34573904  0.06427771    -0.28900
C115        C  0.17498513  0.35087024  0.06109836    -0.05000
C116        C  0.18761582  0.37129006  0.04642381     0.07200
C117        C  0.16371755  0.37758474  0.04113231     0.01000
H118        H  0.18646388  0.34046166  0.06893900     0.08600
H119        H  0.16465701  0.39287066  0.03013665     0.07700
N120        N  0.08052582  0.29375049  0.10438654    -0.36100
N121        N  0.05259131  0.29248380  0.10448811    -0.28300
C122        C  0.03482226  0.27334069  0.11803082    -0.03500
C123        C  0.05265096  0.26260943  0.12725275     0.05100
C124        C  0.08156051  0.27606989  0.11820301     0.03200
H125        H  0.01091445  0.26826610  0.12120608     0.08300
H126        H  0.10205723  0.27367890  0.12158633     0.07100
N127        N  0.62720645  0.53742831  0.92759439    -0.27300
N128        N  0.62895223  0.51362257  0.93532909    -0.35100
C129        C  0.60146447  0.49467430  0.94401967     0.01100
C130        C  0.58164340  0.50759112  0.94216192     0.07100
C131        C  0.59885656  0.53475601  0.93162028    -0.06000
H132        H  0.59670193  0.47355131  0.95162519     0.07700
H133        H  0.59164547  0.55175999  0.92749804     0.08900
Cu134      Cu  0.67026321  0.51070875  0.93623648     0.44200
Cu135      Cu  0.66339304  0.57166780  0.91160460     0.42000
Cu136      Cu  0.74008691  0.57478333  0.91466141     0.43900
N137        N  0.71570794  0.51692393  0.93908084    -0.34700
N138        N  0.74143970  0.54071075  0.93154113    -0.28900
C139        C  0.76703428  0.53822499  0.93629721    -0.05000
C140        C  0.75690379  0.51165002  0.94737211     0.07200
C141        C  0.72421970  0.49875234  0.94882921     0.01000
H142        H  0.79123425  0.55447626  0.93196746     0.08600
H143        H  0.70779551  0.47762302  0.95636597     0.07700
N144        N  0.73007127  0.60147533  0.89623899    -0.36100
N145        N  0.70176714  0.59924690  0.89474455    -0.28300
C146        C  0.70181243  0.61618125  0.88025480    -0.03500
C147        C  0.73170043  0.63024056  0.87229761     0.05100
C148        C  0.74905655  0.62052006  0.88292462     0.03200
H149        H  0.68120923  0.61732259  0.87551018     0.08300
H150        H  0.77340749  0.62603327  0.88080230     0.07100
N151        N  0.91660021  0.45609597  0.01956625    -0.36600
N152        N  0.88021482  0.39516162  0.00257957    -0.57200
N153        N  0.84319309  0.41889385  0.98343865    -0.36600
N154        N  0.87972045  0.47984109  0.00084964    -0.57200
C155        C  0.92538856  0.43813213  0.02948087     0.27000
C156        C  0.92373436  0.48253192  0.02932656     0.27000
C157        C  0.82442073  0.38688253  0.98144609     0.27000
C158        C  0.82498203  0.43232123  0.97987117     0.27000
C159        C  0.90503310  0.39221892  0.00861532     0.35600
C160        C  0.86442787  0.37151301  0.99041811     0.35600
C161        C  0.90383304  0.50753406  0.00740613     0.35600
C162        C  0.86501060  0.48785223  0.98802637     0.35600
C163        C  0.93802128  0.45314659  0.04588189    -0.21900
C164        C  0.93689912  0.48121508  0.04581160    -0.21900
C165        C  0.79389599  0.37982470  0.97642395    -0.21900
C166        C  0.79427597  0.40858642  0.97539534    -0.21900
C167        C  0.90514386  0.36663070  0.00013369    -0.22900
C168        C  0.87911851  0.35325641  0.98871914    -0.22900
C169        C  0.90465537  0.53338474  0.99859265    -0.22900
C170        C  0.87979425  0.52085058  0.98637277    -0.22900
C171        C  0.92527687  0.41044489  0.02302665    -0.18300
C172        C  0.92259717  0.50945558  0.02255871    -0.18300
C173        C  0.83620722  0.46561789  0.97952046    -0.18300
C174        C  0.83517938  0.36448820  0.98232552    -0.18300
H175        H  0.94795163  0.44521440  0.05649371     0.14600
H176        H  0.94596488  0.49923964  0.05634819     0.14600
H177        H  0.77366699  0.35645447  0.97342223     0.14600
H178        H  0.77437698  0.41170842  0.97155535     0.14600
H179        H  0.92159105  0.35788891  0.00236469     0.12900
H180        H  0.87155411  0.33223561  0.98035520     0.12900
H181        H  0.92075194  0.55859909  0.00114182     0.12900
H182        H  0.87286886  0.53439345  0.97762581     0.12900
H183        H  0.91078011  0.45300223  0.00586290     0.26200
H184        H  0.86790511  0.43108311  0.98497525     0.26200
N185        N  0.36694841  0.45845371  0.01212214    -0.36600
N186        N  0.42815196  0.47980765  0.99509995    -0.57200
N187        N  0.40413962  0.41597736  0.98019530    -0.36600
N188        N  0.34239016  0.39510739  0.99644436    -0.57200
C189        C  0.38078036  0.49053007  0.01436480     0.27000
C190        C  0.33519443  0.44582557  0.01465285     0.27000
C191        C  0.43192880  0.43222346  0.97101817     0.27000
C192        C  0.38601166  0.38774180  0.97152362     0.27000
C193        C  0.43611787  0.50561235  0.00568734     0.35600
C194        C  0.45574789  0.48365001  0.98830105     0.35600
C195        C  0.31851389  0.38903926  0.00805398     0.35600
C196        C  0.33822882  0.36639023  0.99125240     0.35000
C197        C  0.35760538  0.49841750  0.01847323    -0.21900
C198        C  0.32877913  0.47019543  0.01856851    -0.21900
C199        C  0.43168893  0.41370955  0.95658027    -0.21900
C200        C  0.40251543  0.38603595  0.95666385    -0.21900
C201        C  0.46887080  0.52604423  0.00553512    -0.22900
C202        C  0.48125424  0.51240952  0.99430724    -0.22900
C203        C  0.29901715  0.35626418  0.01027802    -0.22900
C204        C  0.31158600  0.34188592  0.99965706    -0.22900
C205        C  0.41400101  0.51248215  0.01405707    -0.18300
C206        C  0.31241470  0.41268438  0.01513515    -0.18300
C207        C  0.35641575  0.36221873  0.97769914    -0.18300
C208        C  0.45806608  0.46258301  0.97585887    -0.18300
H209        H  0.36116498  0.52201189  0.02132812     0.14600
H210        H  0.30580769  0.46780928  0.02160536     0.14600
H211        H  0.45057821  0.41931254  0.94696878     0.14600
H212        H  0.39482379  0.36639192  0.94720160     0.14600
H213        H  0.48236168  0.54890012  0.01233133     0.12900
H214        H  0.50621477  0.52278137  0.99086162     0.12900
H215        H  0.27759513  0.34402729  0.01837461     0.12900
H216        H  0.30177816  0.31635161  0.99794231     0.12900
H217        H  0.37890049  0.44560078  0.01127609     0.26200
H218        H  0.39951196  0.42210587  0.99283005     0.26200
N219        N  0.02319581  0.67787594  0.07194476    -0.27300
N220        N  0.04225087  0.68486934  0.05787222    -0.35100
C221        C  0.03027677  0.65957408  0.04667394     0.01100
C222        C  0.00285997  0.63490020  0.05435873     0.07100
C223        C  0.99927694  0.64742819  0.07048111    -0.06000
H224        H  0.04093410  0.65923179  0.03389896     0.07700
H225        H  0.98063622  0.63544488  0.08042644     0.08900
Cu226      Cu  0.08514756  0.72714350  0.05555946     0.44200
Cu227      Cu  0.02908758  0.71139807  0.09118621     0.42000
Cu228      Cu  0.09834250  0.79160571  0.08532140     0.43900
N229        N  0.12750239  0.77026725  0.05667369    -0.34700
N230        N  0.13145175  0.79505539  0.06628405    -0.28900
C231        C  0.16069515  0.82007474  0.06293747    -0.05000
C232        C  0.17639291  0.81026204  0.05108006     0.07200
C233        C  0.15449989  0.77834630  0.04761445     0.01000
H234        H  0.16984158  0.84358753  0.06884486     0.08600
H235        H  0.15789320  0.76197613  0.03918244     0.07700
N236        N  0.06444583  0.77898208  0.10563608    -0.36100
N237        N  0.03883101  0.75028579  0.10726035    -0.28300
C238        C  0.02155232  0.75033423  0.12143852    -0.03500
C239        C  0.03739676  0.78024533  0.12949612     0.05100
C240        C  0.06456409  0.79774112  0.11911990     0.03200
H241        H  0.99922801  0.72990657  0.12565246     0.08300
H242        H  0.08325387  0.82225910  0.12131330     0.07100
N243        N  0.27524462  0.07475670  0.93545668    -0.27300
N244        N  0.29352239  0.09908042  0.94616062    -0.35100
C245        C  0.31058038  0.09086419  0.95703628     0.01100
C246        C  0.30236969  0.05954443  0.95327006     0.07100
C247        C  0.27976034  0.05003391  0.93950671    -0.06000
H248        H  0.32807545  0.10675497  0.96678819     0.07700
H249        H  0.26790173  0.02705444  0.93272861     0.08900
Cu250      Cu  0.29476451  0.14244595  0.94518580     0.44200
Cu251      Cu  0.24793763  0.07880804  0.91487308     0.42000
Cu252      Cu  0.26087237  0.16053144  0.90677844     0.43900
N253        N  0.29679391  0.18585494  0.94160786    -0.34700
N254        N  0.28688611  0.19380896  0.92686551    -0.28900
C255        C  0.29452643  0.22471911  0.92823274    -0.05000
C256        C  0.30925340  0.23650474  0.94489109     0.07200
C257        C  0.30988463  0.21089803  0.95298050     0.01000
H258        H  0.28961261  0.23755822  0.91787442     0.08600
H259        H  0.31923482  0.21040486  0.96622078     0.07700
N260        N  0.23232050  0.12054845  0.89084616    -0.36100
N261        N  0.22764475  0.09137736  0.89377058    -0.28300
C262        C  0.20838268  0.07165376  0.88072320    -0.03500
C263        C  0.20039917  0.08910683  0.86910593     0.05100
C264        C  0.21591614  0.11996477  0.87596167     0.03200
H265        H  0.20100405  0.04649736  0.87965777     0.08300
H266        H  0.21544906  0.14055364  0.87047177     0.07100
N267        N  0.48812954  0.68121822  0.06393780    -0.27300
N268        N  0.46704967  0.68437581  0.05409010    -0.35100
C269        C  0.45004974  0.65784312  0.04411813     0.01100
C270        C  0.46120440  0.63696662  0.04763961     0.07100
C271        C  0.48539734  0.65256070  0.06031893    -0.06000
H272        H  0.43101553  0.65407641  0.03491902     0.07700
H273        H  0.49982331  0.64371121  0.06648260     0.08900
Cu274      Cu  0.46269835  0.72473641  0.05473867     0.44200
Cu275      Cu  0.51691971  0.71572411  0.08269336     0.42000
Cu276      Cu  0.49174090  0.77516290  0.09392080     0.43900
N277        N  0.45886358  0.76511332  0.05791776    -0.34700
N278        N  0.46724238  0.78268284  0.07277796    -0.28900
C279        C  0.46002989  0.80615440  0.07061638    -0.05000
C280        C  0.44705603  0.80347762  0.05340230     0.07200
C281        C  0.44703612  0.77725537  0.04580134     0.01000
H282        H  0.46440364  0.82414940  0.08070544     0.08600
H283        H  0.43933819  0.76779664  0.03230594     0.07700
N284        N  0.52355210  0.76692523  0.10919473    -0.36100
N285        N  0.53430873  0.74766679  0.10419189    -0.28300
C286        C  0.55595991  0.74963357  0.11633691    -0.03500
C287        C  0.55862011  0.77048052  0.12996895     0.05100
C288        C  0.53767390  0.78099310  0.12495867     0.03200
H289        H  0.56842235  0.73627777  0.11544594     0.08300
H290        H  0.53286016  0.79751737  0.13229688     0.07100
N291        N  0.35750611  0.89242627  0.01710327    -0.36600
N292        N  0.42042586  0.93406340  0.00216493    -0.57200
N293        N  0.39838399  0.97595568  0.98833491    -0.36600
N294        N  0.33611347  0.93547475  0.00389046    -0.57200
C295        C  0.37477001  0.88100806  0.02549116     0.27000
C296        C  0.32945132  0.88078179  0.02602560     0.27000
C297        C  0.43029921  0.99456898  0.98628054     0.27000
C298        C  0.38563378  0.99522612  0.98686611     0.27000
C299        C  0.42317998  0.90823289  0.00629439     0.35600
C300        C  0.44458600  0.95227373  0.99076401     0.35600
C301        C  0.30779283  0.91121034  0.00963937     0.35600
C302        C  0.32947586  0.95500054  0.99392578     0.35600
C303        C  0.35737943  0.86179631  0.03990409    -0.21900
C304        C  0.32860168  0.86113819  0.04001351    -0.21900
C305        C  0.43796618  0.02613541  0.98361574    -0.21900
C306        C  0.40967495  0.02650528  0.98388449    -0.21900
C307        C  0.44921201  0.90996042  0.99742981    -0.22900
C308        C  0.46281678  0.93793625  0.98757950    -0.22900
C309        C  0.28314090  0.91580132  0.00361131    -0.22900
C310        C  0.29684751  0.94328567  0.99346785    -0.22900
C311        C  0.40442805  0.88506993  0.01942392    -0.18300
C312        C  0.30405914  0.88621218  0.02128891    -0.18300
C313        C  0.35264315  0.98466063  0.98655097    -0.18300
C314        C  0.45194155  0.98304584  0.98468065    -0.18300
H315        H  0.36426277  0.84876347  0.04907980     0.14600
H316        H  0.30926215  0.84758102  0.04935013     0.14600
H317        H  0.46138202  0.04656875  0.98111848     0.14600
H318        H  0.40700509  0.04727109  0.98174676     0.14600
H319        H  0.45793259  0.89323721  0.99834925     0.12900
H320        H  0.48410601  0.94706801  0.97938100     0.12900
H321        H  0.25788645  0.90116360  0.00635773     0.12900
H322        H  0.28426661  0.95388157  0.98693793     0.12900
H323        H  0.36288970  0.90431915  0.00476837     0.26200
H324        H  0.38568216  0.95104958  0.98807559     0.26200
N325        N  0.10354141  0.02730305  0.77689175    -0.27300
N326        N  0.08114763  0.03039702  0.78529885    -0.35100
C327        C  0.09097292  0.04059119  0.80229843     0.01100
C328        C  0.12082046  0.04369184  0.80480461     0.07100
C329        C  0.12788172  0.03484033  0.78840704    -0.06000
H330        H  0.07753410  0.04578135  0.81204374     0.07700
H331        H  0.14952603  0.03471600  0.78491639     0.08900
Cu332      Cu  0.03795621  0.01995022  0.77340868     0.44200
Cu333      Cu  0.10266311  0.01824218  0.74945690     0.42000
Cu334      Cu  0.03438355  0.00965423  0.72495262     0.43900
N335        N  0.99601747  0.00262000  0.75845461    -0.34700
N336        N  0.99478955  0.99821968  0.74074111    -0.28900
C337        C  0.96415728  0.98367038  0.73526504    -0.05000
C338        C  0.94528265  0.97906018  0.75018989     0.07200
C339        C  0.96611155  0.99118028  0.76469995     0.01000
H340        H  0.95615773  0.97604443  0.72153114     0.08600
H341        H  0.95990667  0.99026878  0.77882428     0.07700
N342        N  0.07720814  0.02093368  0.71269496    -0.36100
N343        N  0.10185454  0.02288968  0.72163100    -0.28300
C344        C  0.12657241  0.03249934  0.71021885    -0.03500
C345        C  0.11707642  0.03700357  0.69330977     0.05100
C346        C  0.08561150  0.02935723  0.69535575     0.03200
H347        H  0.15016890  0.03736992  0.71413891     0.08300
H348        H  0.07038521  0.03106640  0.68517969     0.07100
N349        N  0.79166025  0.08617182  0.72767742    -0.27300
N350        N  0.79350459  0.06416246  0.71793781    -0.35100
C351        C  0.78725229  0.06722138  0.70053014     0.01100
C352        C  0.78151671  0.09259320  0.69915372     0.07100
C353        C  0.78486454  0.10420551  0.71665148    -0.06000
H354        H  0.78605878  0.05150383  0.68974237     0.07700
H355        H  0.78136870  0.12356449  0.72118194     0.08900
Cu356      Cu  0.80427745  0.03077624  0.72863840     0.44200
Cu357      Cu  0.79286758  0.08740389  0.75577071     0.42000
Cu358      Cu  0.80336715  0.02573125  0.77718835     0.43900
N359        N  0.81990402  0.00392554  0.74284509    -0.34700
N360        N  0.81993652  0.00248860  0.76071612    -0.28900
C361        C  0.83371225  0.98544728  0.76590312    -0.05000
C362        C  0.84252461  0.97554769  0.75055492     0.07200
C363        C  0.83359712  0.98772102  0.73616800     0.01000
H364        H  0.83782720  0.98138022  0.77980738     0.08600
H365        H  0.83780392  0.98596723  0.72195728     0.07700
N366        N  0.78761700  0.05281721  0.79070811    -0.36100
N367        N  0.78485994  0.07616335  0.78309394    -0.28300
C368        C  0.77378436  0.08865103  0.79544983    -0.03500
C369        C  0.76912504  0.07218259  0.81156471     0.05100
C370        C  0.77814960  0.04964906  0.80803424     0.03200
H371        H  0.76889625  0.10787469  0.79279919     0.08300
H372        H  0.77742011  0.03189787  0.81730462     0.07100
C373        C  0.86272236  0.91118555  0.74794133     0.80200
N374        N  0.89504850  0.92826359  0.74918524    -0.78100
C375        C  0.91037037  0.96066157  0.75071967     0.82700
N376        N  0.89325958  0.97598793  0.75120648    -0.78000
C377        C  0.86090836  0.95898469  0.74981325     0.82800
N378        N  0.84566070  0.92659148  0.74808524    -0.79700
N379        N  0.76738354  0.71306166  0.77560417    -0.27300
N380        N  0.78584745  0.74023271  0.78423986    -0.35100
C381        C  0.78524024  0.73416915  0.80206764     0.01100
C382        C  0.76534859  0.70160501  0.80479512     0.07100
C383        C  0.75441686  0.68901697  0.78770811    -0.06000
H384        H  0.79827646  0.75213455  0.81229515     0.07700
H385        H  0.73827144  0.66416652  0.78431962     0.08900
Cu386      Cu  0.80978006  0.78435160  0.77130457     0.44200
Cu387      Cu  0.76154029  0.70992298  0.74767156     0.42000
Cu388      Cu  0.79800329  0.78454587  0.72262972     0.43900
N389        N  0.82595705  0.82566694  0.75590339    -0.34700
N390        N  0.82053033  0.82579295  0.73834257    -0.28900
C391        C  0.83252105  0.85630715  0.73279539    -0.05000
C392        C  0.84630256  0.87614926  0.74754804     0.07200
C393        C  0.84187760  0.85607116  0.76193552     0.01000
H394        H  0.83161546  0.86348499  0.71902714     0.08600
H395        H  0.84924927  0.86299584  0.77582101     0.07700
N396        N  0.77663767  0.73968734  0.71043210    -0.36100
N397        N  0.76279366  0.71247743  0.71959217    -0.28300
C398        C  0.75160530  0.68785189  0.70786138    -0.03500
C399        C  0.75895409  0.70009091  0.69046960     0.05100
C400        C  0.77486542  0.73306642  0.69263529     0.03200
H401        H  0.73927172  0.66284537  0.71171952     0.08300
H402        H  0.78472612  0.75094594  0.68205909     0.07100
N403        N  0.04568544  0.70919821  0.43516107    -0.27300
N404        N  0.07017212  0.70968709  0.44346787    -0.35100
C405        C  0.06000165  0.68147791  0.45190976     0.01100
C406        C  0.02738352  0.66239421  0.44905413     0.07100
C407        C  0.01917284  0.68100717  0.43848825    -0.06000
H408        H  0.07540452  0.67507712  0.45924899     0.07700
H409        H  0.99577015  0.67425938  0.43316583     0.08900
Cu410      Cu  0.11631462  0.74867677  0.44270692     0.44200
Cu411      Cu  0.05033802  0.74461527  0.41733443     0.42000
Cu412      Cu  0.13232349  0.80350357  0.40585900     0.43900
N413        N  0.15993200  0.79033450  0.43902147    -0.34700
N414        N  0.16648016  0.80919910  0.42479508    -0.28900
C415        C  0.19683658  0.83340851  0.42602683    -0.05000
C416        C  0.20993937  0.83018107  0.44207230     0.07200
C417        C  0.18565057  0.80258343  0.44995238     0.01000
H418        H  0.20828748  0.85221010  0.41606058     0.08600
H419        H  0.18645193  0.79232541  0.46283852     0.07700
N420        N  0.09267949  0.79784940  0.39176461    -0.36100
N421        N  0.06282145  0.77740881  0.39634207    -0.28300
C422        C  0.04304513  0.78018920  0.38456400    -0.03500
C423        C  0.06136240  0.80336545  0.37192650     0.05100
C424        C  0.09268607  0.81403261  0.37693805     0.03200
H425        H  0.01726342  0.76595827  0.38497433     0.08300
H426        H  0.11396616  0.83196948  0.37014941     0.07100
N427        N  0.64281888  0.11068124  0.57212856    -0.27300
N428        N  0.65325893  0.12310221  0.55596844    -0.35100
C429        C  0.62948924  0.10779091  0.54388840     0.01100
C430        C  0.60194164  0.08561874  0.55291071     0.07100
C431        C  0.61163766  0.08848728  0.57091242    -0.06000
H432        H  0.63218446  0.11290777  0.52956273     0.07700
H433        H  0.59711774  0.07588942  0.58246073     0.08900
Cu434      Cu  0.69731125  0.16442495  0.55196689     0.44200
Cu435      Cu  0.67301239  0.12209383  0.59437988     0.42000
Cu436      Cu  0.75355493  0.19021740  0.58907151     0.43900
N437        N  0.73838857  0.20952665  0.55322571    -0.34700
N438        N  0.75933499  0.21876584  0.56663115    -0.28900
C439        C  0.78265329  0.24916895  0.56363303    -0.05000
C440        C  0.77590067  0.25987294  0.54768677     0.07200
C441        C  0.74756922  0.23401774  0.54152503     0.01000
H442        H  0.80287475  0.26261654  0.57252486     0.08600
H443        H  0.73431857  0.23323566  0.52952098     0.07700
N444        N  0.73962423  0.15766712  0.61036442    -0.36100
N445        N  0.71044753  0.13289331  0.61221378    -0.28300
C446        C  0.70970382  0.11598155  0.62689516    -0.03500
C447        C  0.73971947  0.13098024  0.63482411     0.05100
C448        C  0.75804464  0.15736588  0.62397898     0.03200
H449        H  0.68890532  0.09413880  0.63135210     0.08300
H450        H  0.78302223  0.17496833  0.62579599     0.07100
N451        N  0.29517796  0.08510465  0.57472445    -0.27300
N452        N  0.31618589  0.11048434  0.56554835    -0.35100
C453        C  0.33340786  0.10199434  0.55501775     0.01100
C454        C  0.32263559  0.06966442  0.55759306     0.07100
C455        C  0.29836131  0.05977897  0.57020397    -0.06000
H456        H  0.35206834  0.11805418  0.54591386     0.07700
H457        H  0.28370263  0.03579603  0.57546406     0.08900
Cu458      Cu  0.31850884  0.15484539  0.56670330     0.44200
Cu459      Cu  0.26256562  0.08625176  0.59247990     0.42000
Cu460      Cu  0.25615332  0.15879962  0.59159708     0.43900
N461        N  0.31236534  0.19471517  0.56660373    -0.34700
N462        N  0.28894047  0.19581270  0.57514321    -0.28900
C463        C  0.29014964  0.22370235  0.57113569    -0.05000
C464        C  0.31562444  0.24109544  0.55955865     0.07200
C465        C  0.32919843  0.22195038  0.55708717     0.01000
H466        H  0.27327277  0.23050587  0.57595379     0.08600
H467        H  0.34936897  0.22709010  0.54858062     0.07700
N468        N  0.22921659  0.11958586  0.60839490    -0.36100
N469        N  0.23207917  0.09367909  0.60887854    -0.28300
C470        C  0.21307595  0.07398798  0.62193920    -0.03500
C471        C  0.19736975  0.08800624  0.63007151     0.05100
C472        C  0.20810508  0.11686846  0.62110231     0.03200
H473        H  0.21148024  0.05148348  0.62559597     0.08300
H474        H  0.20171073  0.13496128  0.62394124     0.07100
N475        N  0.47359579  0.67852417  0.43423061    -0.27300
N476        N  0.46862850  0.68986480  0.44940381    -0.35100
C477        C  0.45652145  0.66624002  0.46183352     0.01100
C478        C  0.45287915  0.63834628  0.45404674     0.07100
C479        C  0.46381903  0.64724457  0.43646487    -0.06000
H480        H  0.45075988  0.66924100  0.47555061     0.07700
H481        H  0.46471999  0.63207058  0.42598956     0.08900
Cu482      Cu  0.47503292  0.73594555  0.45188323     0.44200
Cu483      Cu  0.49601021  0.70639843  0.41152236     0.42000
Cu484      Cu  0.50376661  0.78447793  0.41163692     0.43900
N485        N  0.47473519  0.77887239  0.44842533    -0.34700
N486        N  0.48366628  0.79548228  0.43321038    -0.28900
C487        C  0.47889905  0.82059509  0.43456871    -0.05000
C488        C  0.46683080  0.82031284  0.45158520     0.07200
C489        C  0.46451322  0.79341355  0.45999957     0.01000
H490        H  0.48410799  0.83799516  0.42395126     0.08600
H491        H  0.45612853  0.78507372  0.47356578     0.07700
N492        N  0.52599500  0.77037900  0.39281574    -0.36100
N493        N  0.52309461  0.74161138  0.39255383    -0.28300
C494        C  0.54102164  0.74042846  0.37897583    -0.03500
C495        C  0.55590706  0.76992800  0.37034339     0.05100
C496        C  0.54582325  0.78826601  0.37951237     0.03200
H497        H  0.54311774  0.71970177  0.37565114     0.08300
H498        H  0.55254119  0.81290329  0.37675493     0.07100
N499        N  0.44801070  0.95982231  0.49863853    -0.36600
N500        N  0.42067028  0.99295006  0.51789905    -0.57200
N501        N  0.36109488  0.95564779  0.49810829    -0.36600
N502        N  0.38793132  0.92200218  0.47959957    -0.57200
C503        C  0.47100364  0.97586993  0.51121992     0.27000
C504        C  0.45165295  0.93535471  0.49243332     0.27000
C505        C  0.35159906  0.96810833  0.51148272     0.27000
C506        C  0.33451550  0.93059460  0.49095242     0.27000
C507        C  0.45153455  0.01154229  0.52302744     0.35600
C508        C  0.40519780  0.00854402  0.52304221     0.35600
C509        C  0.40646911  0.91304643  0.47063160     0.35600
C510        C  0.36141392  0.91249876  0.46944777     0.35600
C511        C  0.49012978  0.96202654  0.51258608    -0.21900
C512        C  0.47737055  0.93597304  0.50117254    -0.21900
C513        C  0.31859096  0.95088558  0.51283017    -0.21900
C514        C  0.30779982  0.92707756  0.49992575    -0.21900
C515        C  0.45545578  0.03871319  0.53181066    -0.22900
C516        C  0.42623532  0.03696925  0.53165169    -0.22900
C517        C  0.39186461  0.89807298  0.45453436    -0.22900
C518        C  0.36337717  0.89796892  0.45370178    -0.22900
C519        C  0.47577478  0.00337844  0.52091624    -0.18300
C520        C  0.43389493  0.91408529  0.47814111    -0.18300
C521        C  0.33381981  0.91259951  0.47562169    -0.18300
C522        C  0.37183672  0.99620359  0.52142135    -0.18300
H523        H  0.51106334  0.96960795  0.52097521     0.14600
H524        H  0.48672913  0.91998660  0.49912851     0.14600
H525        H  0.30381179  0.95532751  0.52198595     0.14600
H526        H  0.28306126  0.90961952  0.49719810     0.14600
H527        H  0.47701486  0.05770577  0.53790576     0.12900
H528        H  0.42095258  0.05431574  0.53757635     0.12900
H529        H  0.40033576  0.88732373  0.44477875     0.12900
H530        H  0.34545311  0.88699460  0.44319446     0.12900
H531        H  0.43294283  0.96733238  0.49329319     0.26200
H532        H  0.38394112  0.96617986  0.49267386     0.26200
N533        N  0.13410509  0.33180301  0.43874416    -0.27300
N534        N  0.13513001  0.35765203  0.44544519    -0.35100
C535        C  0.16243960  0.37480417  0.45465641     0.01100
C536        C  0.17931657  0.35860796  0.45434795     0.07100
C537        C  0.16044274  0.33122843  0.44414808    -0.06000
H538        H  0.16956475  0.39765303  0.46097267     0.07700
H539        H  0.16565363  0.31256855  0.44059497     0.08900
Cu540      Cu  0.09884461  0.36773678  0.44271612     0.44200
Cu541      Cu  0.09950618  0.30278022  0.42000253     0.42000
Cu542      Cu  0.04522710  0.33268132  0.40589692     0.43900
N543        N  0.05907576  0.37215134  0.43947289    -0.34700
N544        N  0.04009444  0.36127674  0.42522476    -0.28900
C545        C  0.01707250  0.36906124  0.42697092    -0.05000
C546        C  0.02139979  0.38484319  0.44340908     0.07200
C547        C  0.04819113  0.38599391  0.45093859     0.01000
H548        H  0.99829747  0.36314578  0.41714618     0.08600
H549        H  0.05876038  0.39560567  0.46401015     0.07700
N550        N  0.05289004  0.30001896  0.39135154    -0.36100
N551        N  0.07102936  0.28820419  0.39685961    -0.28300
C552        C  0.06993188  0.26734924  0.38439062    -0.03500
C553        C  0.05037633  0.26602601  0.37029555     0.05100
C554        C  0.04005212  0.28709557  0.37517615     0.03200
H555        H  0.08270038  0.25429947  0.38544213     0.08300
H556        H  0.02435166  0.29267384  0.36750338     0.07100
N557        N  0.74594507  0.55112737  0.55918985    -0.27300
N558        N  0.72185013  0.52987073  0.54922285    -0.35100
C559        C  0.73216535  0.51432311  0.53858392     0.01100
C560        C  0.76437038  0.52643392  0.54183970     0.07100
C561        C  0.77232205  0.54978036  0.55497361    -0.06000
H562        H  0.71721906  0.49541490  0.52922163     0.07700
H563        H  0.79553305  0.56453051  0.56112250     0.08900
Cu564      Cu  0.67594946  0.52284719  0.54989204     0.44200
Cu565      Cu  0.74154840  0.57971794  0.57886963     0.42000
Cu566      Cu  0.66204455  0.56872246  0.58287068     0.43900
N567        N  0.63331074  0.52303388  0.55170647    -0.34700
N568        N  0.62878956  0.54106843  0.56339893    -0.28900
C569        C  0.59943181  0.53696480  0.56093285    -0.05000
C570        C  0.58443578  0.51478309  0.54722115     0.07200
C571        C  0.60669023  0.50647831  0.54168125     0.01000
H572        H  0.58955134  0.54888165  0.56876226     0.08600
H573        H  0.60363516  0.48936820  0.53129193     0.07700
N574        N  0.69855629  0.59492668  0.60107698    -0.36100
N575        N  0.72804764  0.60035366  0.59931332    -0.28300
C576        C  0.74590285  0.61920833  0.61307222    -0.03500
C577        C  0.72658370  0.62560356  0.62412566     0.05100
C578        C  0.69670077  0.60957368  0.61609687     0.03200
H579        H  0.77105762  0.62752927  0.61493921     0.08300
H580        H  0.67507610  0.60857066  0.62083185     0.07100
N581        N  0.89303855  0.49949498  0.49050302    -0.36600
N582        N  0.85385546  0.43754771  0.50795992    -0.57200
N583        N  0.89594553  0.41646505  0.49446324    -0.36600
N584        N  0.93589931  0.47831614  0.47765954    -0.57200
C585        C  0.87420390  0.50598394  0.50109620     0.27000
C586        C  0.91813185  0.52791426  0.48531410     0.27000
C587        C  0.87971429  0.39395451  0.50720700     0.27000
C588        C  0.92237123  0.41491210  0.49045134     0.27000
C589        C  0.83443565  0.44997280  0.50976209     0.35600
C590        C  0.83620513  0.40601345  0.51195766     0.35600
C591        C  0.94877455  0.50680451  0.46902525     0.35600
C592        C  0.94813195  0.46154507  0.46977792     0.35600
C593        C  0.88710265  0.53887778  0.50237472    -0.21900
C594        C  0.91461873  0.55269840  0.49230233    -0.21900
C595        C  0.89623137  0.37813503  0.51147081    -0.21900
C596        C  0.92313616  0.39129961  0.50081284    -0.21900
C597        C  0.80421743  0.42621462  0.51495998    -0.22900
C598        C  0.80528315  0.39826800  0.51623693    -0.22900
C599        C  0.96976348  0.50838275  0.45580283    -0.22900
C600        C  0.96872209  0.47940036  0.45595605    -0.22900
C601        C  0.84466701  0.48302967  0.50871700    -0.18300
C602        C  0.94330259  0.53206047  0.47376662    -0.18300
C603        C  0.94395244  0.43213395  0.47640056    -0.18300
C604        C  0.84883103  0.38521845  0.51355641    -0.18300
H605        H  0.87745304  0.55164753  0.50959740     0.14600
H606        H  0.93010811  0.57817296  0.49031826     0.14600
H607        H  0.88911081  0.35847121  0.52085994     0.14600
H608        H  0.94084953  0.38384553  0.50040355     0.14600
H609        H  0.78378580  0.42891986  0.51792305     0.12900
H610        H  0.78586948  0.37517099  0.52040994     0.12900
H611        H  0.98442994  0.52831329  0.44698902     0.12900
H612        H  0.98264318  0.47284389  0.44738565     0.12900
H613        H  0.88733155  0.47704450  0.48563904     0.26200
H614        H  0.88728396  0.42885831  0.48701931     0.26200
N615        N  0.42129046  0.47941628  0.50339674    -0.36600
N616        N  0.35818392  0.45643387  0.48876435    -0.57200
N617        N  0.33812055  0.39360386  0.50481596    -0.36600
N618        N  0.40084648  0.41753544  0.52044689    -0.57200
C619        C  0.42313059  0.50743140  0.49861679     0.27000
C620        C  0.44609485  0.48655576  0.51463646     0.27000
C621        C  0.30971924  0.38936224  0.49903289     0.27000
C622        C  0.33199737  0.36956730  0.51654279     0.27000
C623        C  0.37356654  0.48506543  0.48020281     0.35600
C624        C  0.32961190  0.43916639  0.48044156     0.35600
C625        C  0.43273815  0.43109930  0.52268382     0.35600
C626        C  0.38812583  0.38617200  0.52458473     0.35600
C627        C  0.44939817  0.53265175  0.50697648    -0.21900
C628        C  0.46395756  0.51947626  0.51704139    -0.21900
C629        C  0.28521913  0.36194638  0.50696108    -0.21900
C630        C  0.29927661  0.34963837  0.51810977    -0.21900
C631        C  0.35457038  0.48612906  0.46645370    -0.22900
C632        C  0.32661666  0.45713458  0.46668664    -0.22900
C633        C  0.44033424  0.40826014  0.52835508    -0.22900
C634        C  0.41198936  0.37981158  0.52971001    -0.22900
C635        C  0.40353835  0.51096511  0.48558525    -0.18300
C636        C  0.45456894  0.46434980  0.52144726    -0.18300
C637        C  0.35508677  0.36364333  0.52470743    -0.18300
C638        C  0.30533577  0.40832426  0.48591019    -0.18300
H639        H  0.45767052  0.55797907  0.50560444     0.14600
H640        H  0.48558914  0.53266708  0.52495644     0.14600
H641        H  0.25979356  0.35156571  0.50481580     0.14600
H642        H  0.28681237  0.32802068  0.52611754     0.14600
H643        H  0.36001956  0.50593177  0.45744414     0.12900
H644        H  0.30629343  0.45023105  0.45785376     0.12900
H645        H  0.46375344  0.41188939  0.53162877     0.12900
H646        H  0.40923626  0.35710140  0.53404371     0.12900
H647        H  0.40676549  0.45719726  0.49741071     0.26200
H648        H  0.36021923  0.40974793  0.49935167     0.26200
C649        C  0.78776684  0.51550589  0.51427593    -0.01800
C650        C  0.78540241  0.51595196  0.53333726     0.07800
C651        C  0.80297704  0.50601884  0.54421358    -0.02000
C652        C  0.82291496  0.49612401  0.53611887    -0.02000
C653        C  0.82429845  0.49458790  0.51713019     0.08000
C654        C  0.80693512  0.50457878  0.50622087    -0.02200
Br655      Br  0.80982488  0.50363208  0.48019493    -0.00700
Br656      Br  0.76605947  0.53121793  0.49902059    -0.00800
Br657      Br  0.84937467  0.48571278  0.55102832    -0.00700
Br658      Br  0.79845790  0.50383477  0.57020205    -0.00700
C659        C  0.52553301  0.48927813  0.55297490    -0.01800
C660        C  0.55119794  0.50162706  0.54058224     0.07800
C661        C  0.54489297  0.50134041  0.52186291    -0.02000
C662        C  0.51324590  0.48824084  0.51563153    -0.02000
C663        C  0.48786137  0.47688043  0.52807541     0.08000
C664        C  0.49412933  0.47781580  0.54676084    -0.02200
Br665      Br  0.45962569  0.46386266  0.56390106    -0.00700
Br666      Br  0.53261547  0.48595955  0.57843461    -0.00800
Br667      Br  0.50449054  0.48536669  0.48996116    -0.00700
Br668      Br  0.57943369  0.52056605  0.50464977    -0.00700
C669        C  0.96757734  0.37814027  0.45132992    -0.01800
C670        C  0.00134293  0.39676741  0.45182385     0.07800
C671        C  0.01591469  0.42646675  0.46115562    -0.02000
C672        C  0.99708674  0.43620035  0.47066245    -0.02000
C673        C  0.96364785  0.41919263  0.46861651     0.08000
C674        C  0.94897096  0.39031887  0.45868647    -0.02200
Br675      Br  0.90331779  0.36765966  0.45475398    -0.00700
Br676      Br  0.94606921  0.33480675  0.44213184    -0.00800
Br677      Br  0.01708324  0.47243541  0.48692889    -0.00700
Br678      Br  0.06134063  0.45592461  0.45975833    -0.00700
C679        C  0.26617017  0.38018081  0.46078103    -0.01800
C680        C  0.27300176  0.39529033  0.47779571     0.07800
C681        C  0.24901525  0.39734529  0.48735587    -0.02000
C682        C  0.21790110  0.38331178  0.48024444    -0.02000
C683        C  0.21121198  0.36963333  0.46267441     0.08000
C684        C  0.23575044  0.36838093  0.45291330    -0.02200
Br685      Br  0.22930716  0.35287403  0.42830235    -0.00700
Br686      Br  0.29889790  0.37602693  0.44825004    -0.00800
Br687      Br  0.18441937  0.38104638  0.49548721    -0.00700
Br688      Br  0.25903840  0.41954054  0.51029465    -0.00700
C689        C  0.48076629  0.87741832  0.45733033    -0.01800
C690        C  0.45884768  0.84421307  0.45903258     0.07800
C691        C  0.42913785  0.83420205  0.46747409    -0.02000
C692        C  0.42191919  0.85706206  0.47443061    -0.02000
C693        C  0.44286733  0.89016209  0.47156963     0.08000
C694        C  0.47213100  0.90014447  0.46267036    -0.02200
Br695      Br  0.50025088  0.94493531  0.45736537    -0.00700
Br696      Br  0.52382644  0.89227528  0.44916547    -0.00800
Br697      Br  0.38362427  0.84280732  0.48851161    -0.00700
Br698      Br  0.39711496  0.78933414  0.46871016    -0.00700
C699        C  0.45582723  0.58808303  0.45943891    -0.01800
C700        C  0.44024664  0.60594353  0.46247452     0.07800
C701        C  0.41227135  0.59220316  0.47325847    -0.02000
C702        C  0.40074438  0.56164312  0.48113305    -0.02000
C703        C  0.41542177  0.54336352  0.47722449     0.08000
C704        C  0.44253056  0.55648138  0.46596469    -0.02200
Br705      Br  0.46119514  0.53073547  0.45911698    -0.00700
Br706      Br  0.49715094  0.60738398  0.44791787    -0.00800
Br707      Br  0.36519876  0.54507700  0.49770041    -0.00700
Br708      Br  0.38817546  0.61385296  0.47671512    -0.00700
C709        C  0.34099436  0.32920408  0.55264695    -0.01800
C710        C  0.34409683  0.33201027  0.53367910     0.07800
C711        C  0.33684851  0.30482224  0.52318465    -0.02000
C712        C  0.32708905  0.27507037  0.53159239    -0.02000
C713        C  0.32500409  0.27235375  0.55067296     0.08000
C714        C  0.33190877  0.29963412  0.56115323    -0.02200
Br715      Br  0.33065551  0.29725535  0.58723344    -0.00700
Br716      Br  0.34860251  0.36593337  0.56687788    -0.00800
Br717      Br  0.31499254  0.23783477  0.51668697    -0.00700
Br718      Br  0.34026821  0.30854442  0.49717375    -0.00700
C719        C  0.34638852  0.03084351  0.52048686    -0.01800
C720        C  0.35734328  0.01345991  0.53071344     0.07800
C721        C  0.35537641  0.01328567  0.54975264    -0.02000
C722        C  0.34466470  0.03210650  0.55855266    -0.02000
C723        C  0.33391647  0.04973994  0.54834768     0.08000
C724        C  0.33409957  0.04833640  0.52924627    -0.02200
Br725      Br  0.31615740  0.06907382  0.51491492    -0.00700
Br726      Br  0.34870451  0.03114892  0.49439616    -0.00800
Br727      Br  0.34700200  0.03534765  0.58459992    -0.00700
Br728      Br  0.36681485  0.98664082  0.56374167    -0.00700
C729        C  0.80399379  0.32038161  0.54917044    -0.01800
C730        C  0.79459451  0.29206068  0.53908342     0.07800
C731        C  0.80295811  0.29461365  0.52059864    -0.02000
C732        C  0.81911883  0.32484769  0.51214718    -0.02000
C733        C  0.82937809  0.35311056  0.52235020     0.08000
C734        C  0.82225783  0.35071884  0.54099198    -0.02200
Br735      Br  0.83851534  0.38906575  0.55553648    -0.00700
Br736      Br  0.79059620  0.31812784  0.57396380    -0.00800
Br737      Br  0.82682051  0.32743712  0.48640045    -0.00700
Br738      Br  0.79471219  0.25704840  0.50697124    -0.00700
C739        C  0.55796096  0.07560736  0.53042719    -0.01800
C740        C  0.56913233  0.06462582  0.54507341     0.07800
C741        C  0.54838006  0.03346169  0.55210027    -0.02000
C742        C  0.51709376  0.01482213  0.54519056    -0.02000
C743        C  0.50771368  0.02457227  0.52947971     0.08000
C744        C  0.52854785  0.05483985  0.52196069    -0.02200
Br745      Br  0.51648578  0.06808393  0.50001743    -0.00700
Br746      Br  0.58030366  0.11987518  0.52273057    -0.00800
Br747      Br  0.48662487  0.97599533  0.55743698    -0.00700
Br748      Br  0.56248895  0.01392189  0.56997858    -0.00700
C749        C  0.28869028  0.85799355  0.46669462    -0.01800
C750        C  0.30255289  0.89164005  0.46632996     0.07800
C751        C  0.28645244  0.90527698  0.45728972    -0.02000
C752        C  0.25589001  0.88544198  0.44974667    -0.02000
C753        C  0.24246165  0.85169269  0.44962332     0.08000
C754        C  0.25992375  0.83834018  0.45743115    -0.02200
Br755      Br  0.24621317  0.79344036  0.45435054    -0.00700
Br756      Br  0.30798013  0.83831619  0.48071249    -0.00800
Br757      Br  0.23212508  0.90513496  0.44092109    -0.00700
Br758      Br  0.30646977  0.95129981  0.45509624    -0.00700
C759        C  0.98478114  0.60506634  0.44295841    -0.01800
C760        C  0.00627932  0.62876526  0.45518482     0.07800
C761        C  0.00771075  0.61998980  0.47330369    -0.02000
C762        C  0.98886630  0.58790803  0.47885651    -0.02000
C763        C  0.96591710  0.56499353  0.46702007     0.08000
C764        C  0.96379431  0.57371071  0.44908473    -0.02200
Br765      Br  0.93208203  0.54250678  0.43287144    -0.00700
Br766      Br  0.98502866  0.61428865  0.41749480    -0.00800
Br767      Br  0.99438834  0.57513636  0.50278128    -0.00700
Br768      Br  0.03303996  0.65195228  0.49121062    -0.00700
C769        C  0.76106116  0.65868938  0.67081369    -0.01800
C770        C  0.75150024  0.68171890  0.67329279     0.07800
C771        C  0.73426081  0.68667710  0.65944265    -0.02000
C772        C  0.72721519  0.66924789  0.64314269    -0.02000
C773        C  0.73558340  0.64520384  0.64095094     0.08000
C774        C  0.75205355  0.63965636  0.65505752    -0.02200
Br775      Br  0.76020432  0.60435298  0.65368932    -0.00700
Br776      Br  0.78817495  0.65430810  0.68848898    -0.00800
Br777      Br  0.70728971  0.67971120  0.62362870    -0.00700
Br778      Br  0.71856856  0.71608852  0.66305061    -0.00700
C779        C  0.78790430  0.10857860  0.66634574    -0.01800
C780        C  0.77101550  0.10286277  0.68277139     0.07800
C781        C  0.74347009  0.10603220  0.68328531    -0.02000
C782        C  0.73362697  0.11578960  0.66773510    -0.02000
C783        C  0.75015395  0.12084218  0.65125194     0.08000
C784        C  0.77684148  0.11637000  0.65054468    -0.02200
Br785      Br  0.79698146  0.11841914  0.62766852    -0.00700
Br786      Br  0.82737494  0.10765760  0.66548124    -0.00800
Br787      Br  0.69797564  0.12322131  0.66938207    -0.00700
Br788      Br  0.71762550  0.09522388  0.70486567    -0.00700
C789        C  0.12900194  0.03250102  0.66086269    -0.01800
C790        C  0.13719071  0.05042499  0.67702525     0.07800
C791        C  0.16456119  0.08124165  0.67757572    -0.02000
C792        C  0.18400846  0.09375610  0.66216654    -0.02000
C793        C  0.17599101  0.07570841  0.64600405     0.08000
C794        C  0.14819642  0.04517552  0.64537221    -0.02200
Br795      Br  0.13561248  0.02095390  0.62310950    -0.00700
Br796      Br  0.09226560  0.98984009  0.66015263    -0.00800
Br797      Br  0.22252133  0.13502841  0.66369791    -0.00700
Br798      Br  0.17507621  0.10697666  0.69926921    -0.00700
C799        C  0.44483597  0.87794000  0.03778749    -0.01800
C800        C  0.41637874  0.86433819  0.02743013     0.07800
C801        C  0.39869513  0.83077258  0.02516012    -0.02000
C802        C  0.40756133  0.81090476  0.03452288    -0.02000
C803        C  0.43649145  0.82448129  0.04451740     0.08000
C804        C  0.45570192  0.85823184  0.04539667    -0.02200
Br805      Br  0.49823812  0.87803118  0.05556428    -0.00700
Br806      Br  0.46880620  0.92359129  0.04209860    -0.00800
Br807      Br  0.37832474  0.76519700  0.03450490    -0.00700
Br808      Br  0.36269020  0.81191246  0.00872397    -0.00700
C809        C  0.12883978  0.04126244  0.83827693    -0.01800
C810        C  0.14130278  0.05524765  0.82124527     0.07800
C811        C  0.17336970  0.08040811  0.82003771    -0.02000
C812        C  0.19274172  0.09117668  0.83564864    -0.02000
C813        C  0.18013068  0.07740636  0.85265401     0.08000
C814        C  0.14810436  0.05247716  0.85391044    -0.02200
Br815      Br  0.12998296  0.03441234  0.87719675    -0.00700
Br816      Br  0.08572442  0.00569033  0.84033737    -0.00800
Br817      Br  0.23707348  0.12406031  0.83350620    -0.00700
Br818      Br  0.19079119  0.10170836  0.79726168    -0.00700
C819        C  0.31730300  0.03913736  0.98086614    -0.01800
C820        C  0.31596652  0.04097723  0.96178329     0.07800
C821        C  0.32839890  0.02561908  0.95093974    -0.02000
C822        C  0.34054696  0.00744231  0.95907100    -0.02000
C823        C  0.34170057  0.00561033  0.97806325     0.08000
C824        C  0.33095557  0.02227166  0.98892056    -0.02200
Br825      Br  0.33528819  0.02204507  0.01489576    -0.00700
Br826      Br  0.29856552  0.05766106  0.99624497    -0.00800
Br827      Br  0.35519957  0.98447179  0.94418753    -0.00700
Br828      Br  0.33069038  0.03067874  0.92496625    -0.00700
C829        C  0.21539886  0.82613131  0.02523211    -0.01800
C830        C  0.20935131  0.82939473  0.04364558     0.07800
C831        C  0.23512838  0.85092192  0.05481032    -0.02000
C832        C  0.26573577  0.87013172  0.04737132    -0.02000
C833        C  0.27187250  0.86539376  0.02936104     0.08000
C834        C  0.24680462  0.84252351  0.01852759    -0.02200
Br835      Br  0.25549722  0.83444060  0.99418786    -0.00700
Br836      Br  0.18090309  0.80228815  0.00830476    -0.00800
Br837      Br  0.29920227  0.90370011  0.06172500    -0.00700
Br838      Br  0.22996384  0.85320160  0.08056839    -0.00700
C839        C  0.44908115  0.60245625  0.02009708    -0.01800
C840        C  0.44987812  0.60520270  0.03915316     0.07800
C841        C  0.43908641  0.57746221  0.04993003    -0.02000
C842        C  0.42768046  0.54730929  0.04169123    -0.02000
C843        C  0.42616643  0.54453415  0.02267049     0.08000
C844        C  0.43690998  0.57220424  0.01190321    -0.02200
Br845      Br  0.43508511  0.56869107  0.98585198    -0.00700
Br846      Br  0.46622694  0.64025324  0.00503174    -0.00800
Br847      Br  0.41478233  0.50972008  0.05645232    -0.00700
Br848      Br  0.43830436  0.58019743  0.07597106    -0.00700
C849        C  0.36118891  0.31339956  0.97127151    -0.01800
C850        C  0.34395165  0.32975469  0.96936801     0.07800
C851        C  0.31554142  0.31570214  0.95900429    -0.02000
C852        C  0.30343354  0.28475711  0.95166680    -0.02000
C853        C  0.32154702  0.26908767  0.95276070     0.08000
C854        C  0.35118202  0.28433693  0.96206978    -0.02200
Br855      Br  0.37996638  0.26743740  0.96113057    -0.00700
Br856      Br  0.39839670  0.33047255  0.98680702    -0.00800
Br857      Br  0.26088637  0.26346273  0.94146622    -0.00700
Br858      Br  0.29359719  0.33922025  0.95424296    -0.00700
C859        C  0.92892610  0.55702826  0.04015812    -0.01800
C860        C  0.94289524  0.54119678  0.03128503     0.07800
C861        C  0.97637598  0.55594913  0.03018587    -0.02000
C862        C  0.99585390  0.58544409  0.03878460    -0.02000
C863        C  0.98206211  0.60230104  0.04683041     0.08000
C864        C  0.94836299  0.58807496  0.04715704    -0.02200
Br865      Br  0.92813142  0.61149292  0.05566224    -0.00700
Br866      Br  0.88304626  0.53628262  0.04262451    -0.00800
Br867      Br  0.04120438  0.60098483  0.04034640    -0.00700
Br868      Br  0.99574397  0.53664003  0.01594508    -0.00700
C869        C  0.75542851  0.64095035  0.84093270    -0.01800
C870        C  0.74166119  0.64934010  0.85526443     0.07800
C871        C  0.73624529  0.67539450  0.85296395    -0.02000
C872        C  0.74356949  0.69215336  0.83641358    -0.02000
C873        C  0.75754636  0.68391453  0.82221497     0.08000
C874        C  0.76378306  0.65850054  0.82463095    -0.02200
Br875      Br  0.78475492  0.64816778  0.80577676    -0.00700
Br876      Br  0.76122249  0.60418524  0.84284667    -0.00800
Br877      Br  0.73251868  0.72517117  0.83290200    -0.00700
Br878      Br  0.72002659  0.68938581  0.87268504    -0.00700
C879        C  0.77822454  0.49693230  0.97459815    -0.01800
C880        C  0.77673726  0.49935024  0.95560206     0.07800
C881        C  0.79447235  0.49017182  0.94446110    -0.02000
C882        C  0.81416836  0.47951193  0.95225011    -0.02000
C883        C  0.81583619  0.47740386  0.97120263     0.08000
C884        C  0.79783683  0.48615375  0.98234989    -0.02200
Br885      Br  0.80015352  0.48331359  0.00833311    -0.00700
Br886      Br  0.75406772  0.50903071  0.99018487    -0.00800
Br887      Br  0.83946707  0.46839240  0.93700226    -0.00700
Br888      Br  0.79031345  0.49023372  0.91847401    -0.00700
C889        C  0.54530596  0.48707746  0.96920539    -0.01800
C890        C  0.54992885  0.49603666  0.95071884     0.07800
C891        C  0.52406238  0.49391010  0.94054769    -0.02000
C892        C  0.49446815  0.48404800  0.94891805    -0.02000
C893        C  0.48953820  0.47347314  0.96702874     0.08000
C894        C  0.51487303  0.47440171  0.97702071    -0.02200
Br895      Br  0.50797281  0.45883487  0.00165583    -0.00700
Br896      Br  0.58084686  0.49475807  0.98461698    -0.00800
Br897      Br  0.46059347  0.48526953  0.93560334    -0.00700
Br898      Br  0.52793007  0.50250029  0.91487896    -0.00700
C899        C  0.22292303  0.38062199  0.01935784    -0.01800
C900        C  0.21969147  0.38322419  0.03821714     0.07800
C901        C  0.24726622  0.39625228  0.04934939    -0.02000
C902        C  0.27724307  0.40479895  0.04188937    -0.02000
C903        C  0.28038950  0.40241893  0.02309579     0.08000
C904        C  0.25325605  0.39087150  0.01182256    -0.02200
Br905      Br  0.25778919  0.38940108  0.98593169    -0.00700
Br906      Br  0.18594407  0.36144834  0.00367444    -0.00800
Br907      Br  0.31404568  0.41904899  0.05749989    -0.00700
Br908      Br  0.24487120  0.40473838  0.07466403    -0.00700
C909        C  0.00103345  0.41019994  0.03765190    -0.01800
C910        C  0.98845947  0.37914300  0.04514870     0.07800
C911        C  0.95483202  0.35916934  0.04624820    -0.02000
C912        C  0.93442284  0.37043496  0.04035307    -0.02000
C913        C  0.94703929  0.40029905  0.03151485     0.08000
C914        C  0.98048080  0.41998558  0.03008622    -0.02200
Br915      Br  0.99847583  0.45997791  0.01701357    -0.00700
Br916      Br  0.04627504  0.44076322  0.03866133    -0.00800
Br917      Br  0.88901288  0.34502169  0.04466360    -0.00700
Br918      Br  0.93582557  0.31523070  0.05427457    -0.00700
C919        C  0.71503419  0.08121976  0.84537640    -0.01800
C920        C  0.73232103  0.08617464  0.86162706     0.07800
C921        C  0.76149961  0.08618897  0.86141915    -0.02000
C922        C  0.77385599  0.08235387  0.84500209    -0.02000
C923        C  0.75635018  0.07686860  0.82877499     0.08000
C924        C  0.72660784  0.07577709  0.82909477    -0.02200
Br925      Br  0.70085418  0.06568470  0.80743401    -0.00700
Br926      Br  0.67662556  0.08416692  0.84499527    -0.00800
Br927      Br  0.81591729  0.08699341  0.84472463    -0.00700
Br928      Br  0.78433899  0.09065620  0.88373307    -0.00700
C929        C  0.81265239  0.32814168  0.95551390    -0.01800
C930        C  0.81475419  0.33213527  0.97442936     0.07800
C931        C  0.79757669  0.30547197  0.98583251    -0.02000
C932        C  0.77765570  0.27499483  0.97831943    -0.02000
C933        C  0.77439090  0.27115697  0.95935650     0.08000
C934        C  0.79246499  0.29775054  0.94795673    -0.02200
Br935      Br  0.78921233  0.29314480  0.92196583    -0.00700
Br936      Br  0.83802298  0.36442979  0.94002648    -0.00800
Br937      Br  0.75660680  0.23824977  0.99409626    -0.00700
Br938      Br  0.80126236  0.31075435  0.01178762    -0.00700
C939        C  0.54165005  0.03742896  0.97873423    -0.01800
C940        C  0.54354142  0.04508819  0.96018073     0.07800
C941        C  0.51539993  0.03235699  0.94968311    -0.02000
C942        C  0.48561873  0.01151532  0.95758601    -0.02000
C943        C  0.48365657  0.00429673  0.97622030     0.08000
C944        C  0.51173329  0.01774820  0.98682790    -0.02200
Br945      Br  0.50913075  0.00999725  0.01257425    -0.00700
Br946      Br  0.58013364  0.05252768  0.99292151    -0.00800
Br947      Br  0.44747772  0.99251515  0.94279979    -0.00700
Br948      Br  0.51742800  0.04455789  0.92462900    -0.00700
C949        C  0.03099613  0.79103064  0.34260202    -0.01800
C950        C  0.05035015  0.81361797  0.35585315     0.07800
C951        C  0.06031726  0.84635656  0.35332671    -0.02000
C952        C  0.05207413  0.85657680  0.33737615    -0.02000
C953        C  0.03351124  0.83411642  0.32397063     0.08000
C954        C  0.02255869  0.80128899  0.32673714    -0.02200
Br955      Br  0.99513702  0.77015076  0.30898762    -0.00700
Br956      Br  0.01689790  0.74607614  0.34561474    -0.00800
Br957      Br  0.06712978  0.90155812  0.33361417    -0.00700
Br958      Br  0.08402174  0.87719396  0.37206377    -0.00700
C959        C  0.02767974  0.82034018  0.14565944    -0.01800
C960        C  0.02791195  0.79112633  0.14591644     0.07800
C961        C  0.01965908  0.77280470  0.16202181    -0.02000
C962        C  0.01201489  0.78401452  0.17774180    -0.02000
C963        C  0.01301873  0.81378994  0.17761891     0.08000
C964        C  0.02071884  0.83182117  0.16150326    -0.02200
Br965      Br  0.02351808  0.87323361  0.16123413    -0.00700
Br966      Br  0.03522696  0.84418277  0.12341022    -0.00800
Br967      Br  0.99916611  0.75783438  0.19932900    -0.00700
Br968      Br  0.02008085  0.73293047  0.16318093    -0.00700
C969        C  0.00174592  0.20648419  0.33322251    -0.01800
C970        C  0.02599684  0.20750604  0.32220208     0.07800
C971        C  0.05831446  0.22803885  0.32689507    -0.02000
C972        C  0.06632466  0.24766747  0.34237445    -0.02000
C973        C  0.04204708  0.24608116  0.35367101     0.08000
C974        C  0.00971186  0.22519168  0.34906881    -0.02200
Br975      Br  0.97599256  0.22078348  0.36484766    -0.00700
Br976      Br  0.95747052  0.18081753  0.32616512    -0.00800
Br977      Br  0.11068365  0.27794999  0.34737845    -0.00700
Br978      Br  0.09181717  0.22848210  0.31250420    -0.00700
C979        C  0.03753036  0.19657992  0.16091149    -0.01800
C980        C  0.02392489  0.20441552  0.17547541     0.07800
C981        C  0.02044002  0.23175286  0.17431138    -0.02000
C982        C  0.03092375  0.25135231  0.15884155    -0.02000
C983        C  0.04334934  0.24281973  0.14392807     0.08000
C984        C  0.04654276  0.21526139  0.14503157    -0.02200
Br985      Br  0.06210849  0.20203385  0.12465926    -0.00700
Br986      Br  0.04574008  0.16139925  0.16307511    -0.00800
Br987      Br  0.03026943  0.29116498  0.15890068    -0.00700
Br988      Br  0.00016717  0.24203137  0.19360187    -0.00700
C989        C  0.59023514  0.80158587  0.32377825    -0.01800
C990        C  0.61893467  0.80056498  0.32424390     0.07800
C991        C  0.62718376  0.78991669  0.34010946    -0.02000
C992        C  0.60673889  0.78010328  0.35525802    -0.02000
C993        C  0.57747797  0.77994502  0.35446267     0.08000
C994        C  0.56921275  0.79043145  0.33858476    -0.02200
Br995      Br  0.52805432  0.78765427  0.33655116    -0.00700
Br996      Br  0.58025350  0.82005760  0.30329714    -0.00800
Br997      Br  0.61941023  0.76784973  0.37729006    -0.00700
Br998      Br  0.66575935  0.78736755  0.34097172    -0.00700
C999        C  0.59872150  0.76229574  0.17259194    -0.01800
C1000       C  0.61796922  0.79455245  0.17781058     0.07800
C1001       C  0.61782696  0.81897261  0.16735794    -0.02000
C1002       C  0.59877617  0.81121737  0.15163673    -0.02000
C1003       C  0.57888748  0.77880431  0.14653273     0.08000
C1004       C  0.57883890  0.75434939  0.15723363    -0.02200
Br1005     Br  0.55033124  0.70960354  0.15179636    -0.00700
Br1006     Br  0.60052340  0.72889200  0.18614877    -0.00800
Br1007     Br  0.60155713  0.84552629  0.13677783    -0.00700
Br1008     Br  0.64276373  0.86314814  0.17497043    -0.00700
loop_ 
_geom_bond_atom_site_label_1 
_geom_bond_atom_site_label_2 
_geom_bond_distance 
_geom_bond_site_symmetry_2 
_ccdc_geom_bond_type 
N1            N2   1.322       .  A
N1            C5   1.342       .  A
N1           Cu9   2.067       .  S
N2            C3   1.349       .  A
N2           Cu8   2.088       .  S
C3            C4   1.389       .  A
C3            H6   1.082       .  S
C4            C5   1.382       .  A
C4          C990   1.486       .  S
C5            H7   1.082       .  S
Cu8          N11   2.089       .  S
Cu9          N19   2.068       .  S
Cu10         N12   2.075       .  S
Cu10         N18   2.074       .  S
N11          N12   1.325       .  A
N11          C15   1.347       .  A
N12          C13   1.346       .  A
C13          C14   1.379       .  A
C13          H16   1.082       .  S
C14          C15   1.382       .  A
C14          C73   1.464       .  S
C15          H17   1.082       .  S
N18          N19   1.321       .  A
N18          C22   1.346       .  A
N19          C20   1.344       .  A
C20          C21   1.382       .  A
C20          H23   1.082       .  S
C21          C22   1.385       .  A
C21        C1000   1.480       .  S
C22          H24   1.082       .  S
N25          N26   1.321   1_455  A
N25          C29   1.344       .  A
N25         Cu33   2.063       .  S
N26          C27   1.347       .  A
N26         Cu32   2.081       .  S
C27          C28   1.387   1_655  A
C27          H30   1.082       .  S
C28          C29   1.382       .  A
C28         C970   1.483       .  S
C29          H31   1.082       .  S
Cu32         N35   2.081       .  S
Cu33         N43   2.062       .  S
Cu34         N36   2.088       .  S
Cu34         N42   2.087       .  S
N35          N36   1.325       .  A
N35          C39   1.346       .  A
N36          C37   1.347       .  A
C37          C38   1.382       .  A
C37          H40   1.082       .  S
C38          C39   1.380       .  A
C38          C75   1.466   1_545  S
C39          H41   1.082       .  S
N42          N43   1.322   1_655  A
N42          C46   1.348       .  A
N43          C44   1.342       .  A
C44          C45   1.380       .  A
C44          H47   1.082       .  S
C45          C46   1.388   1_455  A
C45         C980   1.481       .  S
C46          H48   1.082       .  S
N49          N50   1.322   1_455  A
N49          C53   1.343       .  A
N49         Cu57   2.070       .  S
N50          C51   1.346       .  A
N50         Cu56   2.076       .  S
C51          C52   1.385   1_655  A
C51          H54   1.082       .  S
C52          C53   1.383       .  A
C52         C963   1.481       .  S
C53          H55   1.082       .  S
Cu56         N59   2.077       .  S
Cu57         N67   2.071       .  S
Cu58         N60   2.073       .  S
Cu58         N66   2.072   1_655  S
N59          N60   1.323       .  A
N59          C63   1.346       .  A
N60          C61   1.345       .  A
C61          C62   1.380       .  A
C61          H64   1.082       .  S
C62          C63   1.381       .  A
C62          C77   1.463       .  S
C63          H65   1.082       .  S
N66          N67   1.322       .  A
N66          C70   1.345       .  A
N67          C68   1.345       .  A
C68          C69   1.383       .  A
C68          H71   1.082       .  S
C69          C70   1.382       .  A
C69         C953   1.476       .  S
C70          H72   1.082   1_455  S
C73          N74   1.359       .  A
C73          N78   1.357       .  A
N74          C75   1.359       .  A
C75          N76   1.358       .  A
N76          C77   1.358       .  A
C77          N78   1.357       .  A
N79          N80   1.324       .  A
N79          C83   1.346       .  A
N79         Cu87   2.081       .  S
N80          C81   1.346       .  A
N80         Cu86   2.081       .  S
C81          C82   1.383       .  A
C81          H84   1.082       .  S
C82          C83   1.383       .  A
C82         C940   1.480       .  S
C83          H85   1.082       .  S
Cu86         N89   2.081       .  S
Cu87         N97   2.080       .  S
Cu88         N90   2.056       .  S
Cu88         N96   2.056       .  S
N89          N90   1.321       .  A
N89          C93   1.345       .  A
N90          C91   1.343       .  A
C91          C92   1.380       .  A
C91          H94   1.082       .  S
C92          C93   1.386       .  A
C92         C933   1.479       .  S
C93          H95   1.082       .  S
N96          N97   1.321       .  A
N96         C100   1.341       .  A
N97          C98   1.347       .  A
C98          C99   1.387       .  A
C98         H101   1.082       .  S
C99         C100   1.380       .  A
C99         C920   1.479       .  S
C100        H102   1.082       .  S
N103        N104   1.320       .  A
N103        C107   1.345       .  A
N103       Cu111   2.069       .  S
N104        C105   1.346       .  A
N104       Cu110   2.087       .  S
C105        C106   1.391       .  A
C105        H108   1.081       .  S
C106        C107   1.387       .  A
C106        C910   1.496   1_455  S
C107        H109   1.081   1_455  S
Cu110       N113   2.088       .  S
Cu111       N121   2.069       .  S
Cu112       N114   2.074       .  S
Cu112       N120   2.073       .  S
N113        N114   1.322       .  A
N113        C117   1.347       .  A
N114        C115   1.344       .  A
C115        C116   1.385       .  A
C115        H118   1.082       .  S
C116        C117   1.388       .  A
C116        C900   1.489       .  S
C117        H119   1.082       .  S
N120        N121   1.321       .  A
N120        C124   1.346       .  A
N121        C122   1.342       .  A
C122        C123   1.384       .  A
C122        H125   1.082       .  S
C123        C124   1.386       .  A
C123        C983   1.484       .  S
C124        H126   1.082       .  S
N127        N128   1.321       .  A
N127        C131   1.346       .  A
N127       Cu135   2.074       .  S
N128        C129   1.343       .  A
N128       Cu134   2.072       .  S
C129        C130   1.386       .  A
C129        H132   1.082       .  S
C130        C131   1.388       .  A
C130        C890   1.488       .  S
C131        H133   1.082       .  S
Cu134       N137   2.074       .  S
Cu135       N145   2.076       .  S
Cu136       N138   2.087       .  S
Cu136       N144   2.087       .  S
N137        N138   1.323       .  A
N137        C141   1.346       .  A
N138        C139   1.347       .  A
C139        C140   1.386       .  A
C139        H142   1.082       .  S
C140        C141   1.384       .  A
C140        C880   1.485       .  S
C141        H143   1.082       .  S
N144        N145   1.322       .  A
N144        C148   1.347       .  A
N145        C146   1.345       .  A
C146        C147   1.385       .  A
C146        H149   1.082       .  S
C147        C148   1.388       .  A
C147        C870   1.490       .  S
C148        H150   1.082       .  S
N151        C156   1.350       .  A
N151        C155   1.353       .  A
N151        H183   1.041       .  S
N152        C159   1.351       .  A
N152        C160   1.348   1_554  A
N153        C158   1.353       .  A
N153        C157   1.351       .  A
N153        H184   1.041       .  S
N154        C161   1.348       .  A
N154        C162   1.350   1_554  A
C155        C163   1.386       .  A
C155        C171   1.415       .  A
C156        C172   1.416       .  A
C156        C164   1.388       .  A
C157        C165   1.388       .  A
C157        C174   1.414       .  A
C158        C173   1.414       .  A
C158        C166   1.386       .  A
C159        C171   1.414       .  A
C159        C167   1.386       .  A
C160        C174   1.410       .  A
C160        C168   1.386       .  A
C161        C169   1.388   1_554  A
C161        C172   1.412       .  A
C162        C170   1.385       .  A
C162        C173   1.409       .  A
C163        C164   1.381       .  A
C163        H175   1.082       .  S
C164        H176   1.082       .  S
C165        C166   1.379       .  A
C165        H177   1.082       .  S
C166        H178   1.082       .  S
C167        C168   1.376   1_554  A
C167        H179   1.082       .  S
C168        H180   1.082       .  S
C169        C170   1.376       .  A
C169        H181   1.082   1_556  S
C170        H182   1.082       .  S
C171        C913   1.499       .  S
C172        C860   1.488       .  S
C173        C883   1.491       .  S
C174        C930   1.485       .  S
N185        C190   1.353       .  A
N185        C189   1.353       .  A
N185        H217   1.039       .  S
N186        C193   1.352   1_556  A
N186        C194   1.351       .  A
N187        C192   1.355       .  A
N187        C191   1.353       .  A
N187        H218   1.038       .  S
N188        C195   1.350   1_556  A
N188        C196   1.351       .  A
C189        C197   1.386       .  A
C189        C205   1.414       .  A
C190        C206   1.416       .  A
C190        C198   1.388       .  A
C191        C199   1.388       .  A
C191        C208   1.419       .  A
C192        C207   1.418       .  A
C192        C200   1.386       .  A
C193        C205   1.413       .  A
C193        C201   1.385       .  A
C194        C208   1.416       .  A
C194        C202   1.388       .  A
C195        C203   1.386       .  A
C195        C206   1.414       .  A
C196        C204   1.386       .  A
C196        C207   1.415       .  A
C197        C198   1.377       .  A
C197        H209   1.082       .  S
C198        H210   1.082       .  S
C199        C200   1.374       .  A
C199        H211   1.081       .  S
C200        H212   1.082       .  S
C201        C202   1.370   1_554  A
C201        H213   1.082       .  S
C202        H214   1.082       .  S
C203        C204   1.376   1_554  A
C203        H215   1.082       .  S
C204        H216   1.082       .  S
C205        C843   1.493       .  S
C206        C903   1.493       .  S
C207        C850   1.499       .  S
C208        C893   1.492       .  S
N219        N220   1.319       .  A
N219        C223   1.343   1_455  A
N219       Cu227   2.063       .  S
N220        C221   1.341       .  A
N220       Cu226   2.063       .  S
C221        C222   1.386       .  A
C221        H224   1.081       .  S
C222        C223   1.387   1_455  A
C222        C863   1.485   1_455  S
C223        H225   1.081       .  S
Cu226       N229   2.064       .  S
Cu227       N237   2.065       .  S
Cu228       N230   2.079       .  S
Cu228       N236   2.081       .  S
N229        N230   1.319       .  A
N229        C233   1.342       .  A
N230        C231   1.346       .  A
C231        C232   1.390       .  A
C231        H234   1.081       .  S
C232        C233   1.386       .  A
C232        C830   1.492       .  S
C233        H235   1.081       .  S
N236        N237   1.322       .  A
N236        C240   1.344       .  A
N237        C238   1.343       .  A
C238        C239   1.383       .  A
C238        H241   1.082   1_455  S
C239        C240   1.387       .  A
C239        C960   1.485       .  S
C240        H242   1.082       .  S
N243        N244   1.320       .  A
N243        C247   1.347       .  A
N243       Cu251   2.082       .  S
N244        C245   1.343       .  A
N244       Cu250   2.062       .  S
C245        C246   1.383       .  A
C245        H248   1.082       .  S
C246        C247   1.390       .  A
C246        C820   1.487       .  S
C247        H249   1.082       .  S
Cu250       N253   2.061       .  S
Cu251       N261   2.084       .  S
Cu252       N254   2.081       .  S
Cu252       N260   2.083       .  S
N253        N254   1.320       .  A
N253        C257   1.341       .  A
N254        C255   1.347       .  A
C255        C256   1.391       .  A
C255        H258   1.081       .  S
C256        C257   1.384       .  A
C256        C853   1.491       .  S
C257        H259   1.081       .  S
N260        N261   1.325       .  A
N260        C264   1.346       .  A
N261        C262   1.346       .  A
C262        C263   1.383       .  A
C262        H265   1.082       .  S
C263        C264   1.384       .  A
C263        C813   1.482       .  S
C264        H266   1.082       .  S
N267        N268   1.319       .  A
N267        C271   1.347       .  A
N267       Cu275   2.074       .  S
N268        C269   1.342       .  A
N268       Cu274   2.059       .  S
C269        C270   1.383       .  A
C269        H272   1.082       .  S
C270        C271   1.388       .  A
C270        C840   1.483       .  S
C271        H273   1.082       .  S
Cu274       N277   2.059       .  S
Cu275       N285   2.074       .  S
Cu276       N278   2.095       .  S
Cu276       N284   2.096       .  S
N277        N278   1.320       .  A
N277        C281   1.342       .  A
N278        C279   1.349       .  A
C279        C280   1.393       .  A
C279        H282   1.082       .  S
C280        C281   1.383       .  A
C280        C803   1.493       .  S
C281        H283   1.082       .  S
N284        N285   1.324       .  A
N284        C288   1.348       .  A
N285        C286   1.343       .  A
C286        C287   1.383       .  A
C286        H289   1.082       .  S
C287        C288   1.389       .  A
C287       C1003   1.489       .  S
C288        H290   1.082       .  S
N291        C296   1.354       .  A
N291        C295   1.356       .  A
N291        H323   1.038       .  S
N292        C299   1.351       .  A
N292        C300   1.351   1_554  A
N293        C298   1.351       .  A
N293        C297   1.351       .  A
N293        H324   1.040       .  S
N294        C301   1.351       .  A
N294        C302   1.352   1_554  A
C295        C303   1.387       .  A
C295        C311   1.421       .  A
C296        C312   1.420       .  A
C296        C304   1.387       .  A
C297        C305   1.388   1_565  A
C297        C314   1.414       .  A
C298        C313   1.411       .  A
C298        C306   1.386   1_565  A
C299        C311   1.414       .  A
C299        C307   1.386   1_554  A
C300        C314   1.414       .  A
C300        C308   1.386       .  A
C301        C309   1.388       .  A
C301        C312   1.416       .  A
C302        C310   1.385       .  A
C302        C313   1.413       .  A
C303        C304   1.376       .  A
C303        H315   1.082       .  S
C304        H316   1.082       .  S
C305        C306   1.377       .  A
C305        H317   1.082       .  S
C306        H318   1.082       .  S
C307        C308   1.376       .  A
C307        H319   1.082       .  S
C308        H320   1.082       .  S
C309        C310   1.370   1_554  A
C309        H321   1.082       .  S
C310        H322   1.082       .  S
C311        C800   1.502       .  S
C312        C833   1.493       .  S
C313        C823   1.491   1_565  S
C314        C943   1.492   1_565  S
N325        N326   1.322       .  A
N325        C329   1.344       .  A
N325       Cu333   2.070       .  S
N326        C327   1.345       .  A
N326       Cu332   2.079       .  S
C327        C328   1.386       .  A
C327        H330   1.082       .  S
C328        C329   1.385       .  A
C328        C810   1.486       .  S
C329        H331   1.082       .  S
Cu332       N335   2.079   1_455  S
Cu333       N343   2.071       .  S
Cu334       N336   2.071   1_445  S
Cu334       N342   2.071       .  S
N335        N336   1.323   1_545  A
N335        C339   1.347   1_545  A
N336        C337   1.344       .  A
C337        C338   1.380       .  A
C337        H340   1.082       .  S
C338        C339   1.382       .  A
C338        C375   1.463       .  S
C339        H341   1.082       .  S
N342        N343   1.322       .  A
N342        C346   1.345       .  A
N343        C344   1.344       .  A
C344        C345   1.383       .  A
C344        H347   1.082       .  S
C345        C346   1.384       .  A
C345        C790   1.480       .  S
C346        H348   1.082       .  S
N349        N350   1.322       .  A
N349        C353   1.345       .  A
N349       Cu357   2.077       .  S
N350        C351   1.345       .  A
N350       Cu356   2.078       .  S
C351        C352   1.386       .  A
C351        H354   1.082       .  S
C352        C353   1.386       .  A
C352        C780   1.488       .  S
C353        H355   1.082       .  S
Cu356       N359   2.077       .  S
Cu357       N367   2.077       .  S
Cu358       N360   2.071       .  S
Cu358       N366   2.070       .  S
N359        N360   1.322       .  A
N359        C363   1.346   1_545  A
N360        C361   1.345   1_545  A
C361        C362   1.380       .  A
C361        H364   1.082       .  S
C362        C363   1.382       .  A
C362        C377   1.463       .  S
C363        H365   1.082       .  S
N366        N367   1.322       .  A
N366        C370   1.344       .  A
N367        C368   1.346       .  A
C368        C369   1.385       .  A
C368        H371   1.082       .  S
C369        C370   1.383       .  A
C369        C923   1.482       .  S
C370        H372   1.082       .  S
C373        N374   1.357       .  A
C373        N378   1.358       .  A
C373        C392   1.463       .  S
N374        C375   1.357       .  A
C375        N376   1.357       .  A
N376        C377   1.359       .  A
C377        N378   1.358       .  A
N379        N380   1.322       .  A
N379        C383   1.345       .  A
N379       Cu387   2.078       .  S
N380        C381   1.346       .  A
N380       Cu386   2.077       .  S
C381        C382   1.385       .  A
C381        H384   1.082       .  S
C382        C383   1.385       .  A
C382        C873   1.485       .  S
C383        H385   1.082       .  S
Cu386       N389   2.077       .  S
Cu387       N397   2.078       .  S
Cu388       N390   2.078       .  S
Cu388       N396   2.078       .  S
N389        N390   1.324       .  A
N389        C393   1.345       .  A
N390        C391   1.347       .  A
C391        C392   1.381       .  A
C391        H394   1.082       .  S
C392        C393   1.380       .  A
C393        H395   1.082       .  S
N396        N397   1.322       .  A
N396        C400   1.346       .  A
N397        C398   1.345       .  A
C398        C399   1.385       .  A
C398        H401   1.082       .  S
C399        C400   1.385       .  A
C399        C770   1.485       .  S
C400        H402   1.082       .  S
N403        N404   1.321       .  A
N403        C407   1.345       .  A
N403       Cu411   2.076       .  S
N404        C405   1.345       .  A
N404       Cu410   2.078       .  S
C405        C406   1.387       .  A
C405        H408   1.082       .  S
C406        C407   1.387       .  A
C406        C760   1.490       .  S
C407        H409   1.082   1_455  S
Cu410       N413   2.078       .  S
Cu411       N421   2.077       .  S
Cu412       N414   2.071       .  S
Cu412       N420   2.073       .  S
N413        N414   1.321       .  A
N413        C417   1.344       .  A
N414        C415   1.345       .  A
C415        C416   1.387       .  A
C415        H418   1.081       .  S
C416        C417   1.388       .  A
C416        C753   1.491       .  S
C417        H419   1.082       .  S
N420        N421   1.323       .  A
N420        C424   1.344       .  A
N421        C422   1.346       .  A
C422        C423   1.385       .  A
C422        H425   1.082       .  S
C423        C424   1.383       .  A
C423        C950   1.482       .  S
C424        H426   1.082       .  S
N427        N428   1.319       .  A
N427        C431   1.346       .  A
N427       Cu435   2.078       .  S
N428        C429   1.345       .  A
N428       Cu434   2.086       .  S
C429        C430   1.393       .  A
C429        H432   1.080       .  S
C430        C431   1.393       .  A
C430        C740   1.505       .  S
C431        H433   1.080       .  S
Cu434       N437   2.088       .  S
Cu435       N445   2.080       .  S
Cu436       N438   2.082       .  S
Cu436       N444   2.082       .  S
N437        N438   1.322       .  A
N437        C441   1.347       .  A
N438        C439   1.347       .  A
C439        C440   1.387       .  A
C439        H442   1.082       .  S
C440        C441   1.388       .  A
C440        C730   1.492       .  S
C441        H443   1.082       .  S
N444        N445   1.323       .  A
N444        C448   1.346       .  A
N445        C446   1.346       .  A
C446        C447   1.385       .  A
C446        H449   1.082       .  S
C447        C448   1.386       .  A
C447        C783   1.486       .  S
C448        H450   1.082       .  S
N451        N452   1.322       .  A
N451        C455   1.347       .  A
N451       Cu459   2.077       .  S
N452        C453   1.347       .  A
N452       Cu458   2.086       .  S
C453        C454   1.387       .  A
C453        H456   1.082       .  S
C454        C455   1.386       .  A
C454        C723   1.488       .  S
C455        H457   1.082       .  S
Cu458       N461   2.086       .  S
Cu459       N469   2.077       .  S
Cu460       N462   2.086       .  S
Cu460       N468   2.086       .  S
N461        N462   1.323       .  A
N461        C465   1.346       .  A
N462        C463   1.348       .  A
C463        C464   1.387       .  A
C463        H466   1.082       .  S
C464        C465   1.387       .  A
C464        C713   1.491       .  S
C465        H467   1.082       .  S
N468        N469   1.323       .  A
N468        C472   1.347       .  A
N469        C470   1.345       .  A
C470        C471   1.383       .  A
C470        H473   1.082       .  S
C471        C472   1.386       .  A
C471        C793   1.483       .  S
C472        H474   1.082       .  S
N475        N476   1.322       .  A
N475        C479   1.345       .  A
N475       Cu483   2.085       .  S
N476        C477   1.348       .  A
N476       Cu482   2.091       .  S
C477        C478   1.391       .  A
C477        H480   1.081       .  S
C478        C479   1.389       .  A
C478        C700   1.498       .  S
C479        H481   1.082       .  S
Cu482       N485   2.091       .  S
Cu483       N493   2.084       .  S
Cu484       N486   2.073       .  S
Cu484       N492   2.073       .  S
N485        N486   1.322       .  A
N485        C489   1.349       .  A
N486        C487   1.344       .  A
C487        C488   1.386       .  A
C487        H490   1.082       .  S
C488        C489   1.390       .  A
C488        C690   1.492       .  S
C489        H491   1.082       .  S
N492        N493   1.322       .  A
N492        C496   1.344       .  A
N493        C494   1.348       .  A
C494        C495   1.387       .  A
C494        H497   1.082       .  S
C495        C496   1.383       .  A
C495        C993   1.484       .  S
C496        H498   1.082       .  S
N499        C504   1.357       .  A
N499        C503   1.354       .  A
N499        H531   1.039       .  S
N500        C507   1.354   1_565  A
N500        C508   1.354   1_565  A
N501        C506   1.354       .  A
N501        C505   1.353       .  A
N501        H532   1.040       .  S
N502        C509   1.350       .  A
N502        C510   1.350       .  A
C503        C511   1.388       .  A
C503        C519   1.421   1_565  A
C504        C520   1.421       .  A
C504        C512   1.386       .  A
C505        C513   1.386       .  A
C505        C522   1.415       .  A
C506        C521   1.418       .  A
C506        C514   1.387       .  A
C507        C519   1.420       .  A
C507        C515   1.387       .  A
C508        C522   1.417   1_545  A
C508        C516   1.386       .  A
C509        C517   1.386       .  A
C509        C520   1.413       .  A
C510        C518   1.387       .  A
C510        C521   1.414       .  A
C511        C512   1.376       .  A
C511        H523   1.081       .  S
C512        H524   1.082       .  S
C513        C514   1.378       .  A
C513        H525   1.082       .  S
C514        H526   1.082       .  S
C515        C516   1.373       .  A
C515        H527   1.082       .  S
C516        H528   1.082       .  S
C517        C518   1.376       .  A
C517        H529   1.082       .  S
C518        H530   1.082       .  S
C519        C743   1.498       .  S
C520        C693   1.502       .  S
C521        C750   1.498       .  S
C522        C720   1.498   1_565  S
N533        N534   1.319       .  A
N533        C537   1.347       .  A
N533       Cu541   2.079       .  S
N534        C535   1.339       .  A
N534       Cu540   2.051       .  S
C535        C536   1.383       .  A
C535        H538   1.082       .  S
C536        C537   1.391       .  A
C536        C683   1.488       .  S
C537        H539   1.081       .  S
Cu540       N543   2.051       .  S
Cu541       N551   2.081       .  S
Cu542       N544   2.086       .  S
Cu542       N550   2.088       .  S
N543        N544   1.319       .  A
N543        C547   1.340       .  A
N544        C545   1.347       .  A
C545        C546   1.393       .  A
C545        H548   1.081   1_455  S
C546        C547   1.383       .  A
C546        C670   1.490       .  S
C547        H549   1.081       .  S
N550        N551   1.325       .  A
N550        C554   1.346       .  A
N551        C552   1.346       .  A
C552        C553   1.384       .  A
C552        H555   1.082       .  S
C553        C554   1.386       .  A
C553        C973   1.486       .  S
C554        H556   1.082       .  S
N557        N558   1.323       .  A
N557        C561   1.347       .  A
N557       Cu565   2.088       .  S
N558        C559   1.344       .  A
N558       Cu564   2.072       .  S
C559        C560   1.383       .  A
C559        H562   1.082       .  S
C560        C561   1.387       .  A
C560        C650   1.485       .  S
C561        H563   1.082       .  S
Cu564       N567   2.071       .  S
Cu565       N575   2.088       .  S
Cu566       N568   2.068       .  S
Cu566       N574   2.068       .  S
N567        N568   1.320       .  A
N567        C571   1.345       .  A
N568        C569   1.343       .  A
C569        C570   1.385       .  A
C569        H572   1.082       .  S
C570        C571   1.386       .  A
C570        C660   1.484       .  S
C571        H573   1.082       .  S
N574        N575   1.322       .  A
N574        C578   1.343       .  A
N575        C576   1.348       .  A
C576        C577   1.389       .  A
C576        H579   1.082       .  S
C577        C578   1.384       .  A
C577        C773   1.489       .  S
C578        H580   1.082       .  S
N581        C586   1.354       .  A
N581        C585   1.353       .  A
N581        H613   1.038       .  S
N582        C589   1.350       .  A
N582        C590   1.352       .  A
N583        C588   1.351       .  A
N583        C587   1.353       .  A
N583        H614   1.040       .  S
N584        C591   1.351       .  A
N584        C592   1.351       .  A
C585        C593   1.386       .  A
C585        C601   1.416       .  A
C586        C602   1.419       .  A
C586        C594   1.388       .  A
C587        C595   1.387       .  A
C587        C604   1.415       .  A
C588        C603   1.413       .  A
C588        C596   1.386       .  A
C589        C601   1.414       .  A
C589        C597   1.387       .  A
C590        C604   1.415       .  A
C590        C598   1.386       .  A
C591        C599   1.386       .  A
C591        C602   1.414       .  A
C592        C600   1.387       .  A
C592        C603   1.415       .  A
C593        C594   1.374       .  A
C593        H605   1.082       .  S
C594        H606   1.082       .  S
C595        C596   1.377       .  A
C595        H607   1.082       .  S
C596        H608   1.082       .  S
C597        C598   1.376       .  A
C597        H609   1.082       .  S
C598        H610   1.082       .  S
C599        C600   1.372       .  A
C599        H611   1.082       .  S
C600        H612   1.082       .  S
C601        C653   1.490       .  S
C602        C763   1.493       .  S
C603        C673   1.492       .  S
C604        C733   1.499       .  S
N615        C620   1.352       .  A
N615        C619   1.354       .  A
N615        H647   1.040       .  S
N616        C623   1.353       .  A
N616        C624   1.351       .  A
N617        C622   1.355       .  A
N617        C621   1.351       .  A
N617        H648   1.040       .  S
N618        C625   1.350       .  A
N618        C626   1.351       .  A
C619        C627   1.387       .  A
C619        C635   1.417       .  A
C620        C636   1.415       .  A
C620        C628   1.387       .  A
C621        C629   1.389       .  A
C621        C638   1.418       .  A
C622        C637   1.416       .  A
C622        C630   1.386       .  A
C623        C635   1.416       .  A
C623        C631   1.385       .  A
C624        C638   1.417       .  A
C624        C632   1.388       .  A
C625        C633   1.387       .  A
C625        C636   1.414       .  A
C626        C634   1.385       .  A
C626        C637   1.413       .  A
C627        C628   1.376       .  A
C627        H639   1.082       .  S
C628        H640   1.082       .  S
C629        C630   1.375       .  A
C629        H641   1.082       .  S
C630        H642   1.082       .  S
C631        C632   1.375       .  A
C631        H643   1.082       .  S
C632        H644   1.082       .  S
C633        C634   1.374       .  A
C633        H645   1.082       .  S
C634        H646   1.082       .  S
C635        C703   1.501       .  S
C636        C663   1.489       .  S
C637        C710   1.495       .  S
C638        C680   1.487       .  S
C649        C650   1.415       .  A
C649        C654   1.409       .  A
C649       Br656   1.931       .  S
C650        C651   1.413       .  A
C651        C652   1.407       .  A
C651       Br658   1.931       .  S
C652        C653   1.409       .  A
C652       Br657   1.932       .  S
C653        C654   1.409       .  A
C654       Br655   1.931       .  S
C659        C660   1.415       .  A
C659        C664   1.406       .  A
C659       Br666   1.932       .  S
C660        C661   1.414       .  A
C661        C662   1.408       .  A
C661       Br668   1.932       .  S
C662        C663   1.410       .  A
C662       Br667   1.932       .  S
C663        C664   1.409       .  A
C664       Br665   1.932       .  S
C669        C670   1.416   1_655  A
C669        C674   1.408       .  A
C669       Br676   1.932       .  S
C670        C671   1.418       .  A
C671        C672   1.406   1_455  A
C671       Br678   1.932       .  S
C672        C673   1.408       .  A
C672       Br677   1.933   1_655  S
C673        C674   1.410       .  A
C674       Br675   1.933       .  S
C679        C680   1.407       .  A
C679        C684   1.408       .  A
C679       Br686   1.932       .  S
C680        C681   1.406       .  A
C681        C682   1.405       .  A
C681       Br688   1.932       .  S
C682        C683   1.418       .  A
C682       Br687   1.934       .  S
C683        C684   1.418       .  A
C684       Br685   1.931       .  S
C689        C690   1.415       .  A
C689        C694   1.410       .  A
C689       Br696   1.931       .  S
C690        C691   1.414       .  A
C691        C692   1.410       .  A
C691       Br698   1.932       .  S
C692        C693   1.414       .  A
C692       Br697   1.930       .  S
C693        C694   1.411       .  A
C694       Br695   1.931       .  S
C699        C700   1.417       .  A
C699        C704   1.409       .  A
C699       Br706   1.932       .  S
C700        C701   1.419       .  A
C701        C702   1.413       .  A
C701       Br708   1.931       .  S
C702        C703   1.411       .  A
C702       Br707   1.932       .  S
C703        C704   1.410       .  A
C704       Br705   1.933       .  S
C709        C710   1.409       .  A
C709        C714   1.411       .  A
C709       Br716   1.930       .  S
C710        C711   1.408       .  A
C711        C712   1.410       .  A
C711       Br718   1.930       .  S
C712        C713   1.415       .  A
C712       Br717   1.930       .  S
C713        C714   1.415       .  A
C714       Br715   1.930       .  S
C719        C720   1.411       .  A
C719        C724   1.410       .  A
C719       Br726   1.931       .  S
C720        C721   1.410       .  A
C721        C722   1.410       .  A
C721       Br728   1.930   1_545  S
C722        C723   1.413       .  A
C722       Br727   1.930       .  S
C723        C724   1.414       .  A
C724       Br725   1.931       .  S
C729        C730   1.416       .  A
C729        C734   1.412       .  A
C729       Br736   1.930       .  S
C730        C731   1.414       .  A
C731        C732   1.409       .  A
C731       Br738   1.931       .  S
C732        C733   1.412       .  A
C732       Br737   1.932       .  S
C733        C734   1.412       .  A
C734       Br735   1.932       .  S
C739        C740   1.422       .  A
C739        C744   1.410       .  A
C739       Br746   1.933       .  S
C740        C741   1.423       .  A
C741        C742   1.411       .  A
C741       Br748   1.931       .  S
C742        C743   1.408       .  A
C742       Br747   1.933   1_545  S
C743        C744   1.408       .  A
C744       Br745   1.934       .  S
C749        C750   1.411       .  A
C749        C754   1.406       .  A
C749       Br756   1.928       .  S
C750        C751   1.411       .  A
C751        C752   1.411       .  A
C751       Br758   1.933       .  S
C752        C753   1.418       .  A
C752       Br757   1.931       .  S
C753        C754   1.414       .  A
C754       Br755   1.933       .  S
C759        C760   1.418   1_655  A
C759        C764   1.409       .  A
C759       Br766   1.932       .  S
C760        C761   1.415       .  A
C761        C762   1.407   1_455  A
C761       Br768   1.931       .  S
C762        C763   1.409       .  A
C762       Br767   1.932       .  S
C763        C764   1.409       .  A
C764       Br765   1.932       .  S
C769        C770   1.412       .  A
C769        C774   1.409       .  A
C769       Br776   1.932       .  S
C770        C771   1.411       .  A
C771        C772   1.409       .  A
C771       Br778   1.932       .  S
C772        C773   1.415       .  A
C772       Br777   1.933       .  S
C773        C774   1.414       .  A
C774       Br775   1.932       .  S
C779        C780   1.413       .  A
C779        C784   1.409       .  A
C779       Br786   1.932       .  S
C780        C781   1.415       .  A
C781        C782   1.409       .  A
C781       Br788   1.933       .  S
C782        C783   1.412       .  A
C782       Br787   1.932       .  S
C783        C784   1.412       .  A
C784       Br785   1.932       .  S
C789        C790   1.410       .  A
C789        C794   1.409       .  A
C789       Br796   1.932   1_545  S
C790        C791   1.412       .  A
C791        C792   1.408       .  A
C791       Br798   1.933       .  S
C792        C793   1.413       .  A
C792       Br797   1.931       .  S
C793        C794   1.412       .  A
C794       Br795   1.931       .  S
C799        C800   1.414       .  A
C799        C804   1.410       .  A
C799       Br806   1.932       .  S
C800        C801   1.411       .  A
C801        C802   1.409       .  A
C801       Br808   1.933       .  S
C802        C803   1.417       .  A
C802       Br807   1.933       .  S
C803        C804   1.415       .  A
C804       Br805   1.932       .  S
C809        C810   1.414       .  A
C809        C814   1.409       .  A
C809       Br816   1.933       .  S
C810        C811   1.415       .  A
C811        C812   1.409       .  A
C811       Br818   1.933       .  S
C812        C813   1.411       .  A
C812       Br817   1.933       .  S
C813        C814   1.411       .  A
C814       Br815   1.932       .  S
C819        C820   1.416       .  A
C819        C824   1.408       .  A
C819       Br826   1.931       .  S
C820        C821   1.415       .  A
C821        C822   1.408       .  A
C821       Br828   1.931       .  S
C822        C823   1.409       .  A
C822       Br827   1.932   1_545  S
C823        C824   1.407       .  A
C824       Br825   1.931   1_556  S
C829        C830   1.418       .  A
C829        C834   1.407       .  A
C829       Br836   1.933       .  S
C830        C831   1.418       .  A
C831        C832   1.408       .  A
C831       Br838   1.931       .  S
C832        C833   1.408       .  A
C832       Br837   1.932       .  S
C833        C834   1.408       .  A
C834       Br835   1.933   1_554  S
C839        C840   1.413       .  A
C839        C844   1.407       .  A
C839       Br846   1.933       .  S
C840        C841   1.413       .  A
C841        C842   1.409       .  A
C841       Br848   1.931       .  S
C842        C843   1.410       .  A
C842       Br847   1.931       .  S
C843        C844   1.410       .  A
C844       Br845   1.931   1_554  S
C849        C850   1.411       .  A
C849        C854   1.407       .  A
C849       Br856   1.933       .  S
C850        C851   1.412       .  A
C851        C852   1.410       .  A
C851       Br858   1.932       .  S
C852        C853   1.416       .  A
C852       Br857   1.932       .  S
C853        C854   1.417       .  A
C854       Br855   1.934       .  S
C859        C860   1.410       .  A
C859        C864   1.408       .  A
C859       Br866   1.933       .  S
C860        C861   1.408       .  A
C861        C862   1.404       .  A
C861       Br868   1.932       .  S
C862        C863   1.416       .  A
C862       Br867   1.933   1_655  S
C863        C864   1.417       .  A
C864       Br865   1.933       .  S
C869        C870   1.416       .  A
C869        C874   1.410       .  A
C869       Br876   1.932       .  S
C870        C871   1.415       .  A
C871        C872   1.410       .  A
C871       Br878   1.932       .  S
C872        C873   1.411       .  A
C872       Br877   1.932       .  S
C873        C874   1.411       .  A
C874       Br875   1.933       .  S
C879        C880   1.413       .  A
C879        C884   1.409       .  A
C879       Br886   1.930       .  S
C880        C881   1.412       .  A
C881        C882   1.409       .  A
C881       Br888   1.930       .  S
C882        C883   1.409       .  A
C882       Br887   1.929       .  S
C883        C884   1.410       .  A
C884       Br885   1.932   1_556  S
C889        C890   1.417       .  A
C889        C894   1.407       .  A
C889       Br896   1.933       .  S
C890        C891   1.416       .  A
C891        C892   1.408       .  A
C891       Br898   1.931       .  S
C892        C893   1.410       .  A
C892       Br897   1.933       .  S
C893        C894   1.409       .  A
C894       Br895   1.934   1_556  S
C899        C900   1.416       .  A
C899        C904   1.409       .  A
C899       Br906   1.931       .  S
C900        C901   1.416       .  A
C901        C902   1.408       .  A
C901       Br908   1.932       .  S
C902        C903   1.409       .  A
C902       Br907   1.932       .  S
C903        C904   1.410       .  A
C904       Br905   1.932   1_554  S
C909        C910   1.416   1_455  A
C909        C914   1.409   1_455  A
C909       Br916   1.933       .  S
C910        C911   1.419       .  A
C911        C912   1.411       .  A
C911       Br918   1.932       .  S
C912        C913   1.411       .  A
C912       Br917   1.933       .  S
C913        C914   1.412       .  A
C914       Br915   1.931       .  S
C919        C920   1.411       .  A
C919        C924   1.408       .  A
C919       Br926   1.932       .  S
C920        C921   1.411       .  A
C921        C922   1.407       .  A
C921       Br928   1.932       .  S
C922        C923   1.412       .  A
C922       Br927   1.932       .  S
C923        C924   1.413       .  A
C924       Br925   1.931       .  S
C929        C930   1.408       .  A
C929        C934   1.406       .  A
C929       Br936   1.932       .  S
C930        C931   1.409       .  A
C931        C932   1.406       .  A
C931       Br938   1.931   1_556  S
C932        C933   1.412       .  A
C932       Br937   1.932       .  S
C933        C934   1.413       .  A
C934       Br935   1.931       .  S
C939        C940   1.411       .  A
C939        C944   1.408       .  A
C939       Br946   1.930       .  S
C940        C941   1.410       .  A
C941        C942   1.408       .  A
C941       Br948   1.930       .  S
C942        C943   1.412       .  A
C942       Br947   1.932   1_545  S
C943        C944   1.411       .  A
C944       Br945   1.931   1_556  S
C949        C950   1.413       .  A
C949        C954   1.408       .  A
C949       Br956   1.931       .  S
C950        C951   1.413       .  A
C951        C952   1.408       .  A
C951       Br958   1.931       .  S
C952        C953   1.408       .  A
C952       Br957   1.931       .  S
C953        C954   1.409       .  A
C954       Br955   1.932   1_455  S
C959        C960   1.414       .  A
C959        C964   1.408       .  A
C959       Br966   1.933       .  S
C960        C961   1.415       .  A
C961        C962   1.408       .  A
C961       Br968   1.934       .  S
C962        C963   1.411       .  A
C962       Br967   1.934   1_455  S
C963        C964   1.410       .  A
C964       Br965   1.932       .  S
C969        C970   1.411       .  A
C969        C974   1.409       .  A
C969       Br976   1.931   1_455  S
C970        C971   1.411       .  A
C971        C972   1.409       .  A
C971       Br978   1.932       .  S
C972        C973   1.414       .  A
C972       Br977   1.932       .  S
C973        C974   1.413       .  A
C974       Br975   1.932   1_455  S
C979        C980   1.410       .  A
C979        C984   1.409       .  A
C979       Br986   1.931       .  S
C980        C981   1.412       .  A
C981        C982   1.407       .  A
C981       Br988   1.933       .  S
C982        C983   1.414       .  A
C982       Br987   1.935       .  S
C983        C984   1.414       .  A
C984       Br985   1.932       .  S
C989        C990   1.413       .  A
C989        C994   1.407       .  A
C989       Br996   1.933       .  S
C990        C991   1.413       .  A
C991        C992   1.412       .  A
C991       Br998   1.930       .  S
C992        C993   1.412       .  A
C992       Br997   1.930       .  S
C993        C994   1.410       .  A
C994       Br995   1.932       .  S
C999       C1000   1.408       .  A
C999       C1004   1.408       .  A
C999      Br1006   1.933       .  S
C1000      C1001   1.410       .  A
C1001      C1002   1.409       .  A
C1001     Br1008   1.932       .  S
C1002      C1003   1.415       .  A
C1002     Br1007   1.931       .  S
C1003      C1004   1.417       .  A
C1004     Br1005   1.933       .  S
