geometry optimzed in LAMMPS
_audit_creation_date              2020-12-01 
_audit_creation_method            'lammps2cif' 
_symmetry_space_group_name_H-M    'P1' 
_symmetry_Int_Tables_number       1 
_symmetry_cell_setting            triclinic 
loop_ 
_symmetry_equiv_pos_as_xyz 
  x,y,z 
_cell_length_a                    83.45073445 
_cell_length_b                    83.481562093871 
_cell_length_c                    83.63903390732156 
_cell_angle_alpha                 89.99070472255364 
_cell_angle_beta                  89.97419629605521 
_cell_angle_gamma                 89.94983005600584 
loop_ 
_atom_site_label 
_atom_site_type_symbol 
_atom_site_fract_x 
_atom_site_fract_y 
_atom_site_fract_z 
_atom_site_charge 
N1          N  0.67640753  0.69552999  0.85186747    -0.26700
N2          N  0.68846332  0.68526607  0.85165628    -0.34600
C3          C  0.69870267  0.68897987  0.86347232     0.01600
C4          C  0.69280282  0.70225685  0.87147850     0.07700
C5          C  0.67866268  0.70610292  0.86377110    -0.05400
H6          H  0.70971279  0.68256977  0.86587396     0.08300
H7          H  0.67062594  0.71590249  0.86652654     0.09500
Cu8        Cu  0.69066837  0.66700192  0.83502431     0.44200
Cu9        Cu  0.65774353  0.69485662  0.83572127     0.42000
Cu10       Cu  0.65916639  0.66369067  0.80540032     0.43900
N11         N  0.69073871  0.65026424  0.81672204    -0.34100
N12         N  0.67924486  0.64894813  0.80592959    -0.28300
C13         C  0.68333172  0.63749030  0.79535619    -0.04400
C14         C  0.69812808  0.63132484  0.79970637     0.07800
C15         C  0.70240843  0.63968985  0.81333185     0.01600
H16         H  0.67618640  0.63416548  0.78509546     0.09200
H17         H  0.71337684  0.63845772  0.82011309     0.08300
N18         N  0.64195733  0.68169115  0.80609650    -0.35500
N19         N  0.64150241  0.69292084  0.81723113    -0.27700
C20         C  0.62987073  0.70344929  0.81369200    -0.02900
C21         C  0.62267802  0.69873839  0.79958149     0.05700
C22         C  0.63059644  0.68484147  0.79511459     0.03800
H23         H  0.62732794  0.71413756  0.82056664     0.08900
H24         H  0.62869012  0.67785388  0.78439797     0.07700
N25         N  0.69378436  0.90199486  0.64454014    -0.26700
N26         N  0.68183853  0.90227846  0.65493818    -0.34600
C27         C  0.68514069  0.91298366  0.66643818     0.01600
C28         C  0.69984087  0.91985323  0.66317815     0.07700
C29         C  0.70499239  0.91263216  0.64916570    -0.05400
H30         H  0.67743922  0.91541268  0.67656565     0.08300
H31         H  0.71618069  0.91466919  0.64296462     0.09500
Cu32       Cu  0.66179796  0.88772793  0.65402297     0.44200
Cu33       Cu  0.69470238  0.88650627  0.62509080     0.42000
Cu34       Cu  0.66093804  0.85939349  0.62219567     0.43900
N35         N  0.64422387  0.87040280  0.65192121    -0.34100
N36         N  0.64410076  0.85984819  0.64017259    -0.28300
C37         C  0.63222470  0.84930735  0.64263216    -0.04400
C38         C  0.62443266  0.85344306  0.65663256     0.07800
C39         C  0.63231249  0.86692866  0.66218286     0.01600
H40         H  0.62977651  0.83916144  0.63497516     0.09200
H41         H  0.62999164  0.87336338  0.67317930     0.08300
N42         N  0.68013485  0.85908354  0.60674650    -0.35500
N43         N  0.69260121  0.86878310  0.60776185    -0.27700
C44         C  0.70338166  0.86457264  0.59655199    -0.02900
C45         C  0.69735515  0.85158687  0.58815756     0.05700
C46         C  0.68259141  0.84849599  0.59492916     0.03800
H47         H  0.71488996  0.87030695  0.59493957     0.08900
H48         H  0.67439222  0.83895444  0.59183931     0.07700
N49         N  0.85870487  0.69562748  0.59843815    -0.26700
N50         N  0.84784067  0.68410873  0.59839201    -0.34600
C51         C  0.83713454  0.68712454  0.58673865     0.01600
C52         C  0.84147761  0.70122373  0.57914328     0.07700
C53         C  0.85523607  0.70623545  0.58686850    -0.05400
H54         H  0.82674145  0.67980176  0.58426444     0.08300
H55         H  0.86202602  0.71703088  0.58460801     0.09500
Cu56       Cu  0.84753097  0.66540516  0.61485311     0.44200
Cu57       Cu  0.87721785  0.69728076  0.61474773     0.42000
Cu58       Cu  0.87912263  0.66651415  0.64466112     0.43900
N59         N  0.84971748  0.64884342  0.63333761    -0.34100
N60         N  0.86139698  0.64924113  0.64400564    -0.28300
C61         C  0.85921452  0.63740492  0.65465948    -0.04400
C62         C  0.84543644  0.62916522  0.65062930     0.07800
C63         C  0.83972177  0.63672866  0.63700856     0.01600
H64         H  0.86685409  0.63530597  0.66489854     0.09200
H65         H  0.82893414  0.63389469  0.63043298     0.08300
N66         N  0.89473959  0.68570530  0.64385609    -0.35500
N67         N  0.89408636  0.69699906  0.63281469    -0.27700
C68         C  0.90547790  0.70796550  0.63580279    -0.02900
C69         C  0.91366192  0.70337062  0.64943032     0.05700
C70         C  0.90652961  0.68918538  0.65421519     0.03800
H71         H  0.90741008  0.71866282  0.62874745     0.08900
H72         H  0.90948507  0.68199870  0.66456922     0.07700
N73         N  0.86659995  0.89495517  0.81538839    -0.26700
N74         N  0.85524675  0.89493052  0.82642227    -0.34600
C75         C  0.84453039  0.90647877  0.82295954     0.01600
C76         C  0.84940187  0.91411200  0.80907323     0.07700
C77         C  0.86342696  0.90648230  0.80464249    -0.05400
H78         H  0.83391655  0.90897409  0.82996348     0.08300
H79         H  0.87074386  0.90898310  0.79425400     0.09500
Cu80       Cu  0.85455779  0.87883839  0.84534176     0.44200
Cu81       Cu  0.88570709  0.87912703  0.81486291     0.42000
Cu82       Cu  0.88676809  0.84981078  0.84637525     0.43900
N83         N  0.85616112  0.86057189  0.86211684    -0.34100
N84         N  0.86797812  0.85002704  0.86248274    -0.28300
C85         C  0.86505642  0.83922100  0.87403139    -0.04400
C86         C  0.85066484  0.84308710  0.88127227     0.07800
C87         C  0.84538118  0.85673700  0.87344068     0.01600
H88         H  0.87258558  0.82896678  0.87654424     0.09200
H89         H  0.83428394  0.86314210  0.87542649     0.08300
N90         N  0.90330696  0.85063170  0.82799548    -0.35500
N91         N  0.90294846  0.86134296  0.81637335    -0.27700
C92         C  0.91462358  0.85796588  0.80580451    -0.02900
C93         C  0.92267502  0.84442255  0.81103956     0.05700
C94         C  0.91518860  0.84014873  0.82516039     0.03800
H95         H  0.91668079  0.86456940  0.79486788     0.08900
H96         H  0.91778542  0.82983919  0.83256453     0.07700
O97         O  0.77109853  0.78982309  0.99721954    -0.72300
O98         O  0.74694855  0.76664962  0.96278864    -0.73300
O99         O  0.74662117  0.76608362  0.99658438    -0.61900
O100        O  0.77121463  0.79043067  0.96342970    -0.70400
O101        O  0.79003557  0.77162410  0.96323012    -0.69900
O102        O  0.76526711  0.74710359  0.99643312    -0.61200
O103        O  0.76574689  0.74780835  0.96269460    -0.73700
O104        O  0.78966056  0.77074896  0.99691600    -0.72500
Cu105      Cu  0.75831200  0.77891812  0.98002882     1.04600
Cu106      Cu  0.77831220  0.75865100  0.97982005     1.04300
C107        C  0.78432485  0.78400889  0.00230615     0.93900
C108        C  0.75258573  0.75348553  0.95738012     0.93000
C109        C  0.75197491  0.75267473  0.00163332     0.85100
C110        C  0.78452099  0.78499083  0.95818280     0.91400
O111        O  0.03612076  0.76696626  0.70555709    -0.72300
O112        O  0.00526688  0.79235458  0.73174731    -0.73300
O113        O  0.03914039  0.78981896  0.73055416    -0.61900
O114        O  0.00238175  0.76917051  0.70702238    -0.70400
O115        O  0.00182262  0.75005990  0.72547264    -0.69900
O116        O  0.03854492  0.77015060  0.74840350    -0.61200
O117        O  0.00473579  0.77322235  0.75017116    -0.73700
O118        O  0.03547921  0.74728270  0.72339210    -0.72500
Cu119      Cu  0.02074906  0.78027596  0.71810828     1.04600
Cu120      Cu  0.02012056  0.75951025  0.73750464     1.04300
C121        C  0.04052232  0.75307377  0.71015107     0.93900
C122        C  0.00015419  0.78692630  0.74506265     0.93000
C123        C  0.04463471  0.78315540  0.74319649     0.85100
C124        C  0.99645441  0.75618226  0.71256609     0.91400
O125        O  0.79470225  0.03946012  0.74604501    -0.72300
O126        O  0.77297000  0.00667230  0.71849019    -0.73300
O127        O  0.77209631  0.04061055  0.72046705    -0.61900
O128        O  0.79528294  0.00546210  0.74414195    -0.70400
O129        O  0.77527778  0.00430259  0.76160215    -0.69900
O130        O  0.75229146  0.03904561  0.73811656    -0.61200
O131        O  0.75305364  0.00514669  0.73601729    -0.73700
O132        O  0.77477269  0.03815834  0.76356912    -0.72500
Cu133      Cu  0.78447741  0.02311298  0.73167378     1.04600
Cu134      Cu  0.76315821  0.02162349  0.75041890     1.04300
C135        C  0.78824193  0.04394982  0.75915846     0.93900
C136        C  0.75960042  0.00071052  0.72291443     0.93000
C137        C  0.75842094  0.04526976  0.72559199     0.85100
C138        C  0.78886987  0.99937303  0.75663626     0.91400
N139        N  0.64640805  0.68389349  0.13720991    -0.26700
N140        N  0.64624273  0.67323687  0.14889611    -0.34600
C141        C  0.63430052  0.67689452  0.15908484     0.01600
C142        C  0.62659047  0.69051833  0.15351580     0.07700
C143        C  0.63459928  0.69458337  0.13961582    -0.05400
H144        H  0.63162086  0.67023563  0.16985665     0.08300
H145        H  0.63222815  0.70474888  0.13192980     0.09500
Cu146      Cu  0.66270438  0.65460136  0.15061288     0.44200
Cu147      Cu  0.66317220  0.68397096  0.11898290     0.42000
Cu148      Cu  0.69398321  0.65345392  0.12028220     0.43900
N149        N  0.68095295  0.63762760  0.15003191    -0.34100
N150        N  0.69233236  0.63721171  0.13902552    -0.28300
C151        C  0.70264136  0.62531985  0.14254435    -0.04400
C152        C  0.69754274  0.61789455  0.15646058     0.07800
C153        C  0.68373232  0.62600368  0.16081951     0.01600
H154        H  0.71331379  0.62261328  0.13568215     0.09200
H155        H  0.67645328  0.62392243  0.17133766     0.08300
N156        N  0.69328613  0.67164295  0.10335259    -0.35500
N157        N  0.68195128  0.68270034  0.10287600    -0.27700
C158        C  0.68512803  0.69300359  0.09094412    -0.02900
C159        C  0.69917810  0.68823724  0.08353548     0.05700
C160        C  0.70401123  0.67464135  0.09171786     0.03800
H161        H  0.67789145  0.70338532  0.08815556     0.08900
H162        H  0.71468460  0.66760000  0.08958266     0.07700
N163        N  0.69573744  0.18306836  0.61245261    -0.26700
N164        N  0.68466032  0.19437869  0.61288139    -0.34600
C165        C  0.68709722  0.20461463  0.60071525     0.01600
C166        C  0.70038727  0.19951291  0.59224123     0.07700
C167        C  0.70554908  0.18580718  0.60001899    -0.05400
H168        H  0.67987253  0.21512964  0.59840143     0.08300
H169        H  0.71578009  0.17842189  0.59702967     0.09500
Cu170      Cu  0.66722241  0.19570431  0.63034316     0.44200
Cu171      Cu  0.69739364  0.16469858  0.62901379     0.42000
Cu172      Cu  0.66790585  0.16429515  0.66052636     0.43900
N173        N  0.65174313  0.19476210  0.64958044    -0.34100
N174        N  0.65195732  0.18340055  0.66059255    -0.28300
C175        C  0.64062442  0.18661241  0.67156867    -0.04400
C176        C  0.63290607  0.20063224  0.66721800     0.07800
C177        C  0.64027156  0.20545822  0.65320945     0.01600
H178        H  0.63823513  0.17928355  0.68197606     0.09200
H179        H  0.63764909  0.21602503  0.64620432     0.08300
N180        N  0.68626194  0.14758998  0.65868482    -0.35500
N181        N  0.69712295  0.14784685  0.64718449    -0.27700
C182        C  0.70788625  0.13614534  0.64980399    -0.02900
C183        C  0.70363514  0.12812191  0.66364592     0.05700
C184        C  0.68982136  0.13568840  0.66893641     0.03800
H185        H  0.71827583  0.13393424  0.64237984     0.08900
H186        H  0.68307671  0.13307485  0.67966953     0.07700
N187        N  0.17269002  0.63766957  0.64404678    -0.26700
N188        N  0.18522270  0.63960817  0.63457317    -0.34600
C189        C  0.19655789  0.62885929  0.63850928     0.01600
C190        C  0.19087536  0.61972981  0.65109642     0.07700
C191        C  0.17570217  0.62561745  0.65424776    -0.05400
H192        H  0.20820225  0.62808560  0.63287384     0.08300
H193        H  0.16761643  0.62179593  0.66361521     0.09500
Cu194      Cu  0.18684245  0.65737037  0.61746470     0.44200
Cu195      Cu  0.15267712  0.65237152  0.64394586     0.42000
Cu196      Cu  0.15317913  0.68472294  0.61565923     0.43900
N197        N  0.18550116  0.67653123  0.60190491    -0.34100
N198        N  0.17313931  0.68640504  0.60116543    -0.28300
C199        C  0.17620291  0.69786144  0.59032313    -0.04400
C200        C  0.19122524  0.69507609  0.58394327     0.07800
C201        C  0.19677885  0.68143032  0.59153924     0.01600
H202        H  0.16819404  0.70767854  0.58756430     0.09200
H203        H  0.20826462  0.67563305  0.58994051     0.08300
N204        N  0.13584520  0.68229945  0.63311564    -0.35500
N205        N  0.13559819  0.67038976  0.64351252    -0.27700
C206        C  0.12375766  0.67297532  0.65410848    -0.02900
C207        C  0.11623733  0.68724281  0.65022315     0.05700
C208        C  0.12420560  0.69279809  0.63680573     0.03800
H209        H  0.12129573  0.66538023  0.66430781     0.08900
H210        H  0.12218841  0.70396520  0.63054518     0.07700
N211        N  0.85840458  0.64981082  0.30956814    -0.26700
N212        N  0.84646552  0.65043552  0.31993824    -0.34600
C213        C  0.83684328  0.63775158  0.31767299     0.01600
C214        C  0.84294484  0.62867971  0.30523931     0.07700
C215        C  0.85667155  0.63667087  0.30039525    -0.05400
H216        H  0.82592471  0.63558368  0.32430606     0.08300
H217        H  0.86457150  0.63347122  0.29064802     0.09500
Cu218      Cu  0.84301029  0.66895099  0.33605236     0.44200
Cu219      Cu  0.87572421  0.66755582  0.30775231     0.42000
Cu220      Cu  0.87061386  0.70198675  0.33408839     0.43900
N221        N  0.84154945  0.68883130  0.35077973    -0.34100
N222        N  0.85164888  0.70098307  0.34998030    -0.28300
C223        C  0.84757572  0.71193736  0.36102507    -0.04400
C224        C  0.83426029  0.70639727  0.36920936     0.07800
C225        C  0.83076797  0.69171073  0.36238482     0.01600
H226        H  0.85392870  0.72306141  0.36294762     0.09200
H227        H  0.82111278  0.68368505  0.36559382     0.08300
N228        N  0.88871843  0.69995478  0.31731142    -0.35500
N229        N  0.89055927  0.68750474  0.30770791    -0.27700
C230        C  0.90315686  0.69018421  0.29805166    -0.02900
C231        C  0.90957149  0.70500495  0.30179937     0.05700
C232        C  0.90013373  0.71083189  0.31408206     0.03800
H233        H  0.90724800  0.68194735  0.28893150     0.08900
H234        H  0.90129168  0.72225630  0.32008856     0.07700
O235        O  0.03485885  0.74895460  0.22601847    -0.72300
O236        O  0.99965427  0.77469028  0.20484530    -0.73300
O237        O  0.03381994  0.77401031  0.20297992    -0.61900
O238        O  0.00083140  0.74952995  0.22758593    -0.70400
O239        O  0.00193226  0.76748859  0.24712732    -0.69900
O240        O  0.03496089  0.79210566  0.22238877    -0.61200
O241        O  0.00096929  0.79258842  0.22440650    -0.73700
O242        O  0.03593598  0.76708950  0.24537100    -0.72500
Cu243      Cu  0.01725555  0.76117878  0.21465522     1.04600
Cu244      Cu  0.01851223  0.78044135  0.23549037     1.04300
C245        C  0.04089173  0.75401576  0.23913578     0.93900
C246        C  0.99467116  0.78762054  0.21141420     0.93000
C247        C  0.03966905  0.78686772  0.20882254     0.85100
C248        C  0.99609796  0.75466447  0.24116201     0.91400
N249        N  0.89263685  0.85266414  0.13522335    -0.26700
N250        N  0.89314894  0.86381992  0.14643129    -0.34600
C251        C  0.90402011  0.85947701  0.15754167     0.01600
C252        C  0.91059060  0.84486870  0.15307672     0.07700
C253        C  0.90307717  0.84098289  0.13887104    -0.05400
H254        H  0.90671548  0.86632449  0.16817779     0.08300
H255        H  0.90486825  0.83029836  0.13176587     0.09500
Cu256      Cu  0.87828529  0.88389571  0.14636612     0.44200
Cu257      Cu  0.87726850  0.85296221  0.11583229     0.42000
Cu258      Cu  0.84860723  0.88491014  0.11460045     0.43900
N259        N  0.86066297  0.90145203  0.14419566    -0.34100
N260        N  0.84986960  0.90164537  0.13263251    -0.28300
C261        C  0.83942484  0.91359887  0.13526204    -0.04400
C262        C  0.84378301  0.92134481  0.14918448     0.07800
C263        C  0.85735520  0.91337685  0.15450644     0.01600
H264        H  0.82905418  0.91602694  0.12789137     0.09200
H265        H  0.86393227  0.91557577  0.16542767     0.08300
N266        N  0.84885670  0.86633952  0.09842331    -0.35500
N267        N  0.85947339  0.85460760  0.09872633    -0.27700
C268        C  0.85586748  0.84397837  0.08721436    -0.02900
C269        C  0.84226354  0.84930688  0.07936158     0.05700
C270        C  0.83817785  0.86352374  0.08677199     0.03800
H271        H  0.86231783  0.83291945  0.08518662     0.08900
H272        H  0.82790433  0.87102639  0.08426773     0.07700
N273        N  0.68645070  0.89398961  0.31584532    -0.26700
N274        N  0.67665529  0.89360069  0.30344400    -0.34600
C275        C  0.68129054  0.90481526  0.29283824     0.01600
C276        C  0.69466142  0.91255906  0.29892328     0.07700
C277        C  0.69754382  0.90537536  0.31351502    -0.05400
H278        H  0.67548174  0.90697558  0.28148441     0.08300
H279        H  0.70713744  0.90804821  0.32179021     0.09500
Cu280      Cu  0.65795708  0.87728769  0.30151829     0.44200
Cu281      Cu  0.68502299  0.87870349  0.33513232     0.42000
Cu282      Cu  0.65464708  0.84860167  0.33454480     0.43900
N283        N  0.64117141  0.85893661  0.30265626    -0.34100
N284        N  0.64006939  0.84861052  0.31460222    -0.28300
C285        C  0.62849922  0.83792754  0.31133592    -0.04400
C286        C  0.62197168  0.84167619  0.29661533     0.07800
C287        C  0.63026153  0.85508259  0.29147613     0.01600
H288        H  0.62531827  0.82802742  0.31903879     0.09200
H289        H  0.62873487  0.86139039  0.28027374     0.08300
N290        N  0.67152737  0.85031374  0.35249047    -0.35500
N291        N  0.68267089  0.86152487  0.35266069    -0.27700
C292        C  0.69231762  0.85918496  0.36526945    -0.02900
C293        C  0.68701151  0.84578977  0.37344227     0.05700
C294        C  0.67378747  0.84046322  0.36500966     0.03800
H295        H  0.70270299  0.86645273  0.36793274     0.08900
H296        H  0.66657833  0.82999096  0.36752489     0.07700
O297        O  0.77293450  0.03900471  0.20986438    -0.72300
O298        O  0.74790480  0.00338554  0.22984059    -0.73300
O299        O  0.74714950  0.03709023  0.23189954    -0.61900
O300        O  0.77364808  0.00518799  0.20786333    -0.70400
O301        O  0.79103719  0.00432198  0.22792796    -0.69900
O302        O  0.76463948  0.03644216  0.25188702    -0.61200
O303        O  0.76514362  0.00257181  0.25003158    -0.73700
O304        O  0.79051316  0.03816652  0.22975530    -0.72500
Cu305      Cu  0.75981735  0.02120847  0.21917300     1.04600
Cu306      Cu  0.77844447  0.02035073  0.24062163     1.04300
C307        C  0.78573503  0.04410651  0.21650541     0.93900
C308        C  0.75249052  0.99741932  0.24312530     0.93000
C309        C  0.75164723  0.04169964  0.24573798     0.85100
C310        C  0.78654294  0.99976223  0.21406488     0.91400
N311        N  0.34880584  0.86812097  0.60116860    -0.26700
N312        N  0.36065706  0.85784341  0.59907279    -0.34600
C313        C  0.35681236  0.84768938  0.58725684     0.01600
C314        C  0.34179142  0.85180462  0.58160724     0.07700
C315        C  0.33707692  0.86484127  0.59066463    -0.05400
H316        H  0.36430017  0.83785311  0.58336350     0.08300
H317        H  0.32578457  0.87118382  0.59001990     0.09500
Cu318      Cu  0.38085188  0.85720302  0.61317245     0.44200
Cu319      Cu  0.34886119  0.88533310  0.61889387     0.42000
Cu320      Cu  0.38253381  0.88538061  0.64624726     0.43900
N321        N  0.39811284  0.85664140  0.63073145    -0.34100
N322        N  0.39871981  0.86674523  0.64288220    -0.28300
C323        C  0.41044748  0.86208291  0.65287212    -0.04400
C324        C  0.41748647  0.84836974  0.64669556     0.07800
C325        C  0.40939211  0.84532123  0.63263017     0.01600
H326        H  0.41320324  0.86793906  0.66406630     0.09200
H327        H  0.41109820  0.83525160  0.62466323     0.08300
N328        N  0.36340657  0.90127018  0.64778689    -0.35500
N329        N  0.35111798  0.90105793  0.63782180    -0.27700
C330        C  0.34036069  0.91211362  0.64239711    -0.02900
C331        C  0.34610196  0.91969376  0.65593482     0.05700
C332        C  0.36077291  0.91254145  0.65899221     0.03800
H333        H  0.32905058  0.91420559  0.63642244     0.08900
H334        H  0.36877966  0.91505960  0.66885424     0.07700
O335        O  0.26487603  0.03850921  0.75151881    -0.72300
O336        O  0.28924668  0.00506104  0.72675347    -0.73300
O337        O  0.28893984  0.03912003  0.72748429    -0.61900
O338        O  0.26527085  0.00445941  0.75099567    -0.70400
O339        O  0.24647040  0.00459414  0.73222667    -0.69900
O340        O  0.26987306  0.03934681  0.70898386    -0.61200
O341        O  0.27021193  0.00543619  0.70822457    -0.73700
O342        O  0.24603829  0.03844782  0.73277846    -0.72500
Cu343      Cu  0.27776070  0.02177794  0.73987251     1.04600
Cu344      Cu  0.25750943  0.02195921  0.71992423     1.04300
C345        C  0.25161661  0.04377209  0.74593374     0.93900
C346        C  0.28347887  0.99999815  0.71352222     0.93000
C347        C  0.28305715  0.04474253  0.71454363     0.85100
C348        C  0.25217427  0.99901364  0.74525394     0.91400
N349        N  0.18447807  0.84202927  0.85146582    -0.26700
N350        N  0.19580088  0.85304947  0.85254240    -0.34600
C351        C  0.20597301  0.84896820  0.86432207     0.01600
C352        C  0.20084685  0.83465483  0.87094774     0.07700
C353        C  0.18717809  0.83063373  0.86250618    -0.05400
H354        H  0.21655596  0.85573555  0.86748430     0.08300
H355        H  0.17989541  0.82002091  0.86401765     0.09500
Cu356      Cu  0.19778636  0.87249142  0.83723345     0.44200
Cu357      Cu  0.16642588  0.84221414  0.83443563     0.42000
Cu358      Cu  0.16879693  0.87323240  0.80490892     0.43900
N359        N  0.19785472  0.88942156  0.81909359    -0.34100
N360        N  0.18734009  0.88949774  0.80727768    -0.28300
C361        C  0.19081484  0.90155042  0.79723745    -0.04400
C362        C  0.20415758  0.90950689  0.80299177     0.07800
C363        C  0.20830300  0.90149466  0.81688507     0.01600
H364        H  0.18409231  0.90422512  0.78650648     0.09200
H365        H  0.21826545  0.90412288  0.82473821     0.08300
N366        N  0.15159532  0.85540454  0.80446050    -0.35500
N367        N  0.15070839  0.84394954  0.81532304    -0.27700
C368        C  0.13879652  0.83386243  0.81136411    -0.02900
C369        C  0.13185131  0.83924397  0.79730671     0.05700
C370        C  0.14025638  0.85295893  0.79331827     0.03800
H371        H  0.13564080  0.82325744  0.81811717     0.08900
H372        H  0.13850361  0.86045269  0.78289305     0.07700
N373        N  0.36598565  0.63707716  0.80345385    -0.26700
N374        N  0.35413150  0.63815229  0.81388874    -0.34600
C375        C  0.34312036  0.62687492  0.81043268     0.01600
C376        C  0.34836948  0.61833189  0.79719387     0.07700
C377        C  0.36290800  0.62513581  0.79316278    -0.05400
H378        H  0.33201477  0.62524996  0.81689891     0.08300
H379        H  0.37051817  0.62198116  0.78316600     0.09500
Cu380      Cu  0.35347673  0.65539644  0.83188034     0.44200
Cu381      Cu  0.38518810  0.65264184  0.80244987     0.42000
Cu382      Cu  0.38647741  0.68413341  0.83142994     0.43900
N383        N  0.35629410  0.67384691  0.84841577    -0.34100
N384        N  0.36839894  0.68406344  0.84829281    -0.28300
C385        C  0.36636943  0.69482484  0.86006369    -0.04400
C386        C  0.35226777  0.69132267  0.86797051     0.07800
C387        C  0.34621418  0.67789785  0.86030753     0.01600
H388        H  0.37432507  0.70479877  0.86231173     0.09200
H389        H  0.33509968  0.67174778  0.86286556     0.08300
N390        N  0.40197379  0.68282164  0.81221970    -0.35500
N391        N  0.40158324  0.67114076  0.80158425    -0.27700
C392        C  0.41233867  0.67420674  0.79002010    -0.02900
C393        C  0.41981813  0.68856080  0.79352437     0.05700
C394        C  0.41296688  0.69366660  0.80772473     0.03800
H395        H  0.41413780  0.66680633  0.77953945     0.08900
H396        H  0.41537446  0.70468408  0.81410159     0.07700
O397        O  0.27476840  0.78382770  0.95924922    -0.72300
O398        O  0.29889513  0.75862115  0.99206166    -0.73300
O399        O  0.29908634  0.75997896  0.95800397    -0.61900
O400        O  0.27426481  0.78221450  0.99316984    -0.70400
O401        O  0.25586896  0.76305802  0.99208936    -0.69900
O402        O  0.28020842  0.74127813  0.95745440    -0.61200
O403        O  0.28036833  0.73958151  0.99133436    -0.73700
O404        O  0.25606920  0.76496716  0.95821390    -0.72500
Cu405      Cu  0.28742035  0.77183717  0.97566882     1.04600
Cu406      Cu  0.26750671  0.75156529  0.97474310     1.04300
C407        C  0.26167577  0.77842294  0.95350997     0.93900
C408        C  0.29348266  0.74517761  0.99692955     0.93000
C409        C  0.29330035  0.74706754  0.95212905     0.85100
C410        C  0.26112263  0.77605464  0.99811999     0.91400
N411        N  0.89157416  0.35642653  0.65479057    -0.26700
N412        N  0.89180174  0.34570602  0.64316338    -0.34600
C413        C  0.90286084  0.33448138  0.64652319     0.01600
C414        C  0.90995776  0.33835560  0.66094370     0.07700
C415        C  0.90252709  0.35235627  0.66582490    -0.05400
H416        H  0.90542790  0.32420709  0.63905722     0.08300
H417        H  0.90466108  0.35898620  0.67671882     0.09500
Cu418      Cu  0.87672729  0.34639426  0.62359200     0.44200
Cu419      Cu  0.87584125  0.37559713  0.65581387     0.42000
Cu420      Cu  0.84745055  0.37782205  0.62306696     0.43900
N421        N  0.85953385  0.34871981  0.60598854    -0.34100
N422        N  0.84875086  0.36030127  0.60571623    -0.28300
C423        C  0.83871025  0.35787302  0.59338490    -0.04400
C424        C  0.84339002  0.34402787  0.58557798     0.07800
C425        C  0.85666573  0.33857873  0.59387996     0.01600
H426        H  0.82840740  0.36528331  0.59072440     0.09200
H427        H  0.86346844  0.32777135  0.59167002     0.08300
N428        N  0.84734798  0.39308104  0.64247444    -0.35500
N429        N  0.85765979  0.39244021  0.65444630    -0.27700
C430        C  0.85387232  0.40384458  0.66518044    -0.02900
C431        C  0.84050228  0.41197586  0.65964729     0.05700
C432        C  0.83672963  0.40482049  0.64524655     0.03800
H433        H  0.86027030  0.40589041  0.67623575     0.08900
H434        H  0.82691037  0.40782749  0.63735064     0.07700
O435        O  0.00075571  0.27011485  0.76028865    -0.72300
O436        O  0.03450426  0.29464488  0.73621277    -0.73300
O437        O  0.00054741  0.29413038  0.73620480    -0.61900
O438        O  0.03469558  0.27071709  0.76038031    -0.70400
O439        O  0.03517852  0.25180314  0.74173423    -0.69900
O440        O  0.00076458  0.27518089  0.71758660    -0.61200
O441        O  0.03471731  0.27567423  0.71761957    -0.73700
O442        O  0.00131244  0.25124274  0.74159942    -0.72500
Cu443      Cu  0.01760955  0.28307589  0.74892326     1.04600
Cu444      Cu  0.01800263  0.26283453  0.72897464     1.04300
C445        C  0.99586140  0.25669939  0.75477836     0.93900
C446        C  0.03988849  0.28898920  0.72306645     0.93000
C447        C  0.99522671  0.28833770  0.72311775     0.85100
C448        C  0.04030171  0.25756793  0.75493069     0.91400
N449        N  0.89974977  0.18086554  0.82565101    -0.26700
N450        N  0.89943185  0.19171520  0.83713243    -0.34600
C451        C  0.91094254  0.20263091  0.83445713     0.01600
C452        C  0.91893114  0.19846796  0.82058260     0.07700
C453        C  0.91154780  0.18455657  0.81534075    -0.05400
H454        H  0.91289576  0.21315847  0.84174441     0.08300
H455        H  0.91405909  0.17796540  0.80449297     0.09500
Cu456      Cu  0.88227242  0.19208242  0.85481179     0.44200
Cu457      Cu  0.88298236  0.16260491  0.82383850     0.42000
Cu458      Cu  0.85012189  0.16278664  0.85248756     0.43900
N459        N  0.86266162  0.19188943  0.86973890    -0.34100
N460        N  0.85080082  0.18143887  0.86890153    -0.28300
C461        C  0.83948874  0.18554864  0.87961234    -0.04400
C462        C  0.84454120  0.19924267  0.88749997     0.07800
C463        C  0.85927791  0.20286496  0.88095290     0.01600
H464        H  0.82827410  0.17925878  0.88119818     0.09200
H465        H  0.86679629  0.21304741  0.88372043     0.08300
N466        N  0.85230159  0.14624418  0.83406112    -0.35500
N467        N  0.86424538  0.14625261  0.82366273    -0.27700
C468        C  0.86185697  0.13449375  0.81295100    -0.02900
C469        C  0.84774025  0.12667420  0.81674353     0.05700
C470        C  0.84201025  0.13444331  0.83023014     0.03800
H471        H  0.86971432  0.13202303  0.80295140     0.08900
H472        H  0.83102694  0.13195234  0.83662918     0.07700
N473        N  0.64451051  0.36513234  0.80853537    -0.26700
N474        N  0.64400905  0.35553696  0.82108846    -0.34600
C475        C  0.63247354  0.34453756  0.81891811     0.01600
C476        C  0.62531289  0.34734206  0.80428609     0.07700
C477        C  0.63323225  0.36051521  0.79802695    -0.05400
H478        H  0.62968656  0.33506467  0.82730421     0.08300
H479        H  0.63118284  0.36618450  0.78657668     0.09500
Cu480      Cu  0.65963415  0.35718585  0.84010099     0.44200
Cu481      Cu  0.66092206  0.38367189  0.80618334     0.42000
Cu482      Cu  0.69001887  0.38796858  0.83840390     0.43900
N483        N  0.67814440  0.35903841  0.85631342    -0.34100
N484        N  0.68941058  0.37014035  0.85576875    -0.28300
C485        C  0.70024709  0.36710315  0.86730872    -0.04400
C486        C  0.69554817  0.35340735  0.87542634     0.07800
C487        C  0.68146077  0.34868235  0.86812773     0.01600
H488        H  0.71099074  0.37407483  0.86930976     0.09200
H489        H  0.67433163  0.33819798  0.87081824     0.08300
N490        N  0.68886279  0.40303391  0.81862416    -0.35500
N491        N  0.67843091  0.40133884  0.80684381    -0.27700
C492        C  0.68142592  0.41244669  0.79557979    -0.02900
C493        C  0.69436490  0.42158986  0.80046450     0.05700
C494        C  0.69873931  0.41528851  0.81515937     0.03800
H495        H  0.67484320  0.41355445  0.78448573     0.08900
H496        H  0.70862844  0.41902357  0.82263127     0.07700
O497        O  0.75854785  0.29580013  0.96532042    -0.72300
O498        O  0.78205658  0.27414859  0.00086067    -0.73300
O499        O  0.78311164  0.27233861  0.96712655    -0.61900
O500        O  0.75719686  0.29727516  0.99909966    -0.70400
O501        O  0.73910397  0.27779136  0.99947155    -0.69900
O502        O  0.76447314  0.25337207  0.96742303    -0.61200
O503        O  0.76400964  0.25464075  0.00126878    -0.73700
O504        O  0.73997639  0.27678811  0.96562390    -0.72500
Cu505      Cu  0.77085488  0.28557331  0.98309508     1.04600
Cu506      Cu  0.75124619  0.26497124  0.98346274     1.04300
C507        C  0.74557572  0.28983463  0.95987089     0.93900
C508        C  0.77692419  0.26095057  0.00659180     0.93000
C509        C  0.77776504  0.25884434  0.96226766     0.85100
C510        C  0.74404995  0.29139645  0.00431180     0.91400
N511        N  0.68463984  0.40133113  0.14418429    -0.26700
N512        N  0.67386425  0.40049985  0.15572908    -0.34600
C513        C  0.67764598  0.41115065  0.16718069     0.01600
C514        C  0.69149952  0.41901227  0.16260341     0.07700
C515        C  0.69555987  0.41249226  0.14794246    -0.05400
H516        H  0.67106266  0.41267948  0.17823447     0.08300
H517        H  0.70593112  0.41526942  0.14068367     0.09500
Cu518      Cu  0.65543847  0.38396602  0.15589256     0.44200
Cu519      Cu  0.68493391  0.38647059  0.12448048     0.42000
Cu520      Cu  0.65517211  0.35496564  0.12371048     0.43900
N521        N  0.63954126  0.36504143  0.15450038    -0.34100
N522        N  0.63940996  0.35438080  0.14281941    -0.28300
C523        C  0.62826575  0.34320230  0.14604196    -0.04400
C524        C  0.62110270  0.34701930  0.16048864     0.07800
C525        C  0.62853485  0.36094198  0.16546252     0.01600
H526        H  0.62593034  0.33283497  0.13862925     0.09200
H527        H  0.62641707  0.36743578  0.17647191     0.08300
N528        N  0.67296087  0.35763016  0.10666871    -0.35500
N529        N  0.68379494  0.36916143  0.10692060    -0.27700
C530        C  0.69407471  0.36702035  0.09473889    -0.02900
C531        C  0.68950839  0.35345264  0.08644330     0.05700
C532        C  0.67605185  0.34782574  0.09431913     0.03800
H533        H  0.70440202  0.37450626  0.09244122     0.08900
H534        H  0.66924394  0.33714299  0.09162168     0.07700
N535        N  0.35054845  0.63111463  0.13557461    -0.26700
N536        N  0.36037514  0.63221834  0.14789810    -0.34600
C537        C  0.35589155  0.62167706  0.15916868     0.01600
C538        C  0.34255224  0.61354582  0.15366284     0.07700
C539        C  0.33955276  0.61977836  0.13863476    -0.05400
H540        H  0.36158649  0.62051649  0.17073258     0.08300
H541        H  0.32965274  0.61686305  0.13080501     0.09500
Cu542      Cu  0.37824568  0.64913989  0.14954665     0.44200
Cu543      Cu  0.35114795  0.64662475  0.11630055     0.42000
Cu544      Cu  0.37827049  0.68045644  0.11954305     0.43900
N545        N  0.39397936  0.66813809  0.14953392    -0.34100
N546        N  0.39394541  0.67973116  0.13877254    -0.28300
C547        C  0.40532646  0.69045535  0.14262123    -0.04400
C548        C  0.41284524  0.68530003  0.15646745     0.07800
C549        C  0.40534948  0.67111497  0.16047239     0.01600
H550        H  0.40779663  0.70124107  0.13589592     0.09200
H551        H  0.40777645  0.66359166  0.17072726     0.08300
N552        N  0.36138773  0.67790951  0.10152026    -0.35500
N553        N  0.35159790  0.66552836  0.10029976    -0.27700
C554        C  0.34162975  0.66790908  0.08790060    -0.02900
C555        C  0.34533090  0.68247486  0.08094157     0.05700
C556        C  0.35795611  0.68846331  0.08986791     0.12600
H557        H  0.33211914  0.65980115  0.08448631     0.08900
H558        H  0.36390616  0.69986916  0.08836705     0.07700
N559        N  0.68577277  0.13657417  0.32878569    -0.26700
N560        N  0.67473528  0.13635206  0.31744095    -0.34600
C561        C  0.67821384  0.12454869  0.30705764     0.01600
C562        C  0.69215498  0.11707479  0.31207296     0.07700
C563        C  0.69654077  0.12496672  0.32591217    -0.05400
H564        H  0.67153855  0.12219579  0.29623084     0.08300
H565        H  0.70723009  0.12299289  0.33296054     0.09500
Cu566      Cu  0.65674771  0.15337729  0.31512071     0.44200
Cu567      Cu  0.68741472  0.15373817  0.34654661     0.42000
Cu568      Cu  0.66072379  0.18690814  0.34230386     0.43900
N569        N  0.64207258  0.17345273  0.31437121    -0.34100
N570        N  0.64366097  0.18568515  0.32428033    -0.28300
C571        C  0.63272810  0.19691494  0.32058265    -0.04400
C572        C  0.62382210  0.19156660  0.30769680     0.07800
C573        C  0.63009512  0.17662301  0.30405187     0.01600
H574        H  0.63151129  0.20825379  0.32673320     0.09200
H575        H  0.62635714  0.16867892  0.29454748     0.08300
N576        N  0.67835052  0.18582090  0.35978680    -0.35500
N577        N  0.68819979  0.17353505  0.36140117    -0.27700
C578        C  0.69856892  0.17660769  0.37332812    -0.02900
C579        C  0.69503891  0.19157930  0.37956205     0.05700
C580        C  0.68212126  0.19702903  0.37069544     0.03800
H581        H  0.70811394  0.16862705  0.37696987     0.08900
H582        H  0.67612145  0.20846966  0.37181995     0.07700
N583        N  0.34749863  0.13916177  0.31810862    -0.26700
N584        N  0.35919379  0.13941937  0.30743194    -0.34600
C585        C  0.35728965  0.12711327  0.29725611     0.01600
C586        C  0.34371292  0.11870318  0.30164560     0.07700
C587        C  0.33781479  0.12667284  0.31494421    -0.05400
H588        H  0.36498861  0.12477281  0.28710426     0.08300
H589        H  0.32707555  0.12387261  0.32162747     0.09500
Cu590      Cu  0.37676073  0.15689765  0.30629808     0.44200
Cu591      Cu  0.34457156  0.15634938  0.33589449     0.42000
Cu592      Cu  0.37297487  0.18884404  0.33503961     0.43900
N593        N  0.39248174  0.17603244  0.30758966    -0.34100
N594        N  0.39109118  0.18765297  0.31822544    -0.28300
C595        C  0.40286839  0.19835558  0.31591096    -0.04400
C596        C  0.41209581  0.19329290  0.30314714     0.07800
C597        C  0.40517191  0.17907151  0.29815196     0.01600
H598        H  0.40437736  0.20920493  0.32284076     0.09200
H599        H  0.40892008  0.17155424  0.28829368     0.08300
N600        N  0.35403811  0.18774619  0.35094873    -0.35500
N601        N  0.34365712  0.17581086  0.35140956    -0.27700
C602        C  0.33283804  0.17876064  0.36298201    -0.02900
C603        C  0.33660356  0.19325137  0.37013292     0.05700
C604        C  0.35013181  0.19859566  0.36217293     0.03800
H605        H  0.32291200  0.17096690  0.36589420     0.08900
H606        H  0.35665359  0.20958170  0.36427387     0.07700
N607        N  0.19520827  0.88596256  0.13694395    -0.26700
N608        N  0.18340027  0.88555254  0.14745846    -0.34600
C609        C  0.18514865  0.89770595  0.15783203     0.01600
C610        C  0.19872827  0.90623164  0.15367428     0.07700
C611        C  0.20480698  0.89845635  0.14033446    -0.05400
H612        H  0.17726293  0.89994917  0.16786063     0.08300
H613        H  0.21561213  0.90136876  0.13380789     0.09500
Cu614      Cu  0.16589808  0.86807426  0.14767658     0.44200
Cu615      Cu  0.19796463  0.86883466  0.11915675     0.42000
Cu616      Cu  0.16881681  0.83625237  0.11839941     0.43900
N617        N  0.14988736  0.84928646  0.14608169    -0.34100
N618        N  0.15088580  0.83762049  0.13544749    -0.28300
C619        C  0.13871428  0.82733785  0.13779871    -0.04400
C620        C  0.12963837  0.83282787  0.15052182     0.07800
C621        C  0.13709218  0.84676476  0.15547075     0.01600
H622        H  0.13669427  0.81661759  0.13079669     0.09200
H623        H  0.13358603  0.85452618  0.16523501     0.08300
N624        N  0.18808368  0.83799144  0.10289875    -0.35500
N625        N  0.19858288  0.84984711  0.10313237    -0.27700
C626        C  0.20958675  0.84731145  0.09167257    -0.02900
C627        C  0.20587570  0.83318479  0.08386561     0.05700
C628        C  0.19215201  0.82759556  0.09130079     0.03800
H629        H  0.21964255  0.85513854  0.08931535     0.08900
H630        H  0.18559874  0.81675847  0.08857251     0.07700
N631        N  0.34905471  0.88851911  0.31804827    -0.26700
N632        N  0.36068456  0.88839944  0.30729457    -0.34600
C633        C  0.35826404  0.90039130  0.29684989     0.01600
C634        C  0.34440898  0.90844302  0.30110913     0.07700
C635        C  0.33888581  0.90059236  0.31464371    -0.05400
H636        H  0.36585940  0.90279752  0.28663863     0.08300
H637        H  0.32814463  0.90325183  0.32138452     0.09500
Cu638      Cu  0.37902656  0.87158822  0.30647557     0.44200
Cu639      Cu  0.34723476  0.87187511  0.33650283     0.42000
Cu640      Cu  0.37920437  0.84262778  0.33813637     0.43900
N641        N  0.39583603  0.85331449  0.30816605    -0.34100
N642        N  0.39592579  0.84287001  0.32002765    -0.28300
C643        C  0.40770831  0.83218456  0.31763894    -0.04400
C644        C  0.41543121  0.83600299  0.30353558     0.07800
C645        C  0.40760689  0.84951065  0.29783228     0.01600
H646        H  0.41010980  0.82207081  0.32537658     0.09200
H647        H  0.40998140  0.85587478  0.28682087     0.08300
N648        N  0.36018561  0.84294031  0.35383549    -0.35500
N649        N  0.34838410  0.85349236  0.35327923    -0.27700
C650        C  0.33767594  0.84991326  0.36476710    -0.02900
C651        C  0.34303642  0.83645109  0.37288388     0.05700
C652        C  0.35734349  0.83239330  0.36562079     0.03800
H653        H  0.32672702  0.85652523  0.36687918     0.08900
H654        H  0.36503772  0.82235855  0.36848998     0.07700
O655        O  0.24864084  0.03059160  0.22262781    -0.72300
O656        O  0.27106884  0.99666228  0.24817205    -0.73300
O657        O  0.27080202  0.03063299  0.24844161    -0.61900
O658        O  0.24905683  0.99666022  0.22230602    -0.70400
O659        O  0.26925081  0.99716733  0.20503510    -0.69900
O660        O  0.29113515  0.03089948  0.23133216    -0.61200
O661        O  0.29137298  0.99687161  0.23103482    -0.73700
O662        O  0.26887586  0.03114675  0.20541740    -0.72500
Cu663      Cu  0.25920108  0.01363327  0.23597921     1.04600
Cu664      Cu  0.28087496  0.01403749  0.21759515     1.04300
C665        C  0.25513042  0.03617506  0.20996523     0.93900
C666        C  0.28473094  0.99141032  0.24370005     0.93000
C667        C  0.28445086  0.03602652  0.24409375     0.85100
C668        C  0.25569704  0.99163240  0.20947997     0.91400
N669        N  0.35013019  0.17809630  0.60481150    -0.26700
N670        N  0.36029097  0.19022886  0.60481277    -0.34600
C671        C  0.35690353  0.19990220  0.59241732     0.01600
C672        C  0.34394512  0.19356519  0.58423539     0.07700
C673        C  0.33999486  0.17971993  0.59242397    -0.05400
H674        H  0.36318770  0.21092924  0.58984947     0.08300
H675        H  0.33021391  0.17162456  0.58984694     0.09500
Cu676      Cu  0.37782709  0.19347628  0.62205957     0.44200
Cu677      Cu  0.34989780  0.16044212  0.62217811     0.42000
Cu678      Cu  0.38078088  0.16255362  0.65239195     0.43900
N679        N  0.39445821  0.19373213  0.64046913    -0.34100
N680        N  0.39567897  0.18232615  0.65136604    -0.28300
C681        C  0.40744708  0.18612720  0.66165297    -0.04400
C682        C  0.41394132  0.20065706  0.65702660     0.07800
C683        C  0.40541401  0.20511544  0.64354915     0.01600
H684        H  0.41080955  0.17892420  0.67186064     0.09200
H685        H  0.40694981  0.21590570  0.63654085     0.08300
N686        N  0.36285420  0.14545098  0.65228925    -0.35500
N687        N  0.35143030  0.14486383  0.64136868    -0.27700
C688        C  0.34096413  0.13330471  0.64532163    -0.02900
C689        C  0.34605313  0.12625646  0.65941908     0.05700
C690        C  0.36000994  0.13421421  0.66345279     0.03800
H691        H  0.33026737  0.13052302  0.63857144     0.08900
H692        H  0.36726112  0.13239299  0.67402291     0.07700
N693        N  0.17286590  0.39357960  0.64723399    -0.26700
N694        N  0.18500353  0.39266452  0.63711603    -0.34600
C695        C  0.19532119  0.40463398  0.64018758     0.01600
C696        C  0.18942204  0.41347107  0.65291363     0.07700
C697        C  0.17514603  0.40613329  0.65703048    -0.05400
H698        H  0.20656761  0.40634028  0.63399630     0.08300
H699        H  0.16726042  0.40930461  0.66680830     0.09500
Cu700      Cu  0.18784347  0.37431496  0.62067210     0.44200
Cu701      Cu  0.15454818  0.37689949  0.64836638     0.42000
Cu702      Cu  0.15806162  0.34282663  0.62207077     0.43900
N703        N  0.18862763  0.35394602  0.60654029    -0.34100
N704        N  0.17774994  0.34246464  0.60711974    -0.28300
C705        C  0.18172900  0.33090450  0.59668033    -0.04400
C706        C  0.19578977  0.33531283  0.58913508     0.07800
C707        C  0.19983984  0.34999415  0.59568633     0.01600
H708        H  0.17483844  0.32010751  0.59472942     0.09200
H709        H  0.21013617  0.35731495  0.59280891     0.08300
N710        N  0.14008740  0.34529658  0.63886145    -0.35500
N711        N  0.13881166  0.35773742  0.64854214    -0.27700
C712        C  0.12667369  0.35516777  0.65879038    -0.02900
C713        C  0.12001287  0.34036886  0.65538945     0.05700
C714        C  0.12877966  0.33449428  0.64263714     0.03800
H715        H  0.12335077  0.36325987  0.66832571     0.08900
H716        H  0.12748402  0.32293850  0.63691536     0.07700
N717        N  0.16964576  0.39799237  0.31613176    -0.26700
N718        N  0.18012733  0.39963261  0.32785976    -0.34600
C719        C  0.18923245  0.41258287  0.32499601     0.01600
C720        C  0.18424501  0.41940270  0.31075623     0.07700
C721        C  0.17177596  0.40986793  0.30550629    -0.05400
H722        H  0.19914345  0.41632210  0.33244108     0.08300
H723        H  0.16515197  0.41105706  0.29445125     0.09500
Cu724      Cu  0.18287776  0.38333990  0.34629135     0.44200
Cu725      Cu  0.15383354  0.37904025  0.31425224     0.42000
Cu726      Cu  0.15678030  0.34887841  0.34494951     0.43900
N727        N  0.18495523  0.36401126  0.36163166    -0.34100
N728        N  0.17544712  0.35137781  0.36103459    -0.28300
C729        C  0.18036784  0.34057921  0.37188181    -0.04400
C730        C  0.19362089  0.34671552  0.37971798     0.07800
C731        C  0.19618061  0.36160618  0.37291491     0.01600
H732        H  0.17479353  0.32903256  0.37371498     0.09200
H733        H  0.20567788  0.36995976  0.37571407     0.08300
N734        N  0.14038311  0.34793063  0.32642823    -0.35500
N735        N  0.13951020  0.35885829  0.31503233    -0.27700
C736        C  0.12833867  0.35441562  0.30436610    -0.02900
C737        C  0.12183663  0.33998034  0.30930176     0.05700
C738        C  0.12973550  0.33625421  0.32335740     0.03800
H739        H  0.12536372  0.36115016  0.29371282     0.08900
H740        H  0.12814426  0.32565930  0.33064790     0.07700
N741        N  0.88988103  0.19456409  0.13882595    -0.26700
N742        N  0.89092886  0.18306061  0.14965391    -0.34600
C743        C  0.90226684  0.18704562  0.16036484     0.01600
C744        C  0.90860340  0.20178129  0.15608892     0.07700
C745        C  0.90046710  0.20615188  0.14237413    -0.05400
H746        H  0.90542796  0.17983890  0.17063868     0.08300
H747        H  0.90195681  0.21706456  0.13554759     0.09500
Cu748      Cu  0.87629625  0.16290176  0.15005351     0.44200
Cu749      Cu  0.87371020  0.19470525  0.12007670     0.42000
Cu750      Cu  0.84688023  0.16125702  0.11829352     0.43900
N751        N  0.85871740  0.14532940  0.14849389    -0.34100
N752        N  0.84804721  0.14481281  0.13682688    -0.28300
C753        C  0.83752630  0.13301489  0.13982059    -0.04400
C754        C  0.84171434  0.12570625  0.15406600     0.07800
C755        C  0.85526812  0.13379211  0.15921739     0.01600
H756        H  0.82721888  0.13037242  0.13243866     0.09200
H757        H  0.86174098  0.13192433  0.17026181     0.08300
N758        N  0.84548433  0.18065920  0.10289306    -0.35500
N759        N  0.85534542  0.19300939  0.10355352    -0.27700
C760        C  0.85052814  0.20417405  0.09299613    -0.02900
C761        C  0.83688916  0.19860315  0.08537923     0.05700
C762        C  0.83408916  0.18363469  0.09193071     0.03800
H763        H  0.85617847  0.21573390  0.09149343     0.08900
H764        H  0.82416777  0.17571228  0.08935717     0.07700
N765        N  0.86803624  0.39975435  0.32120083    -0.26700
N766        N  0.85742868  0.40007236  0.33291983    -0.34600
C767        C  0.84677345  0.41183122  0.33007370     0.01600
C768        C  0.85086805  0.41927160  0.31584662     0.07700
C769        C  0.86446009  0.41131170  0.31058809    -0.05400
H770        H  0.83647616  0.41436903  0.33752075     0.08300
H771        H  0.87093247  0.41329936  0.29955929     0.09500
Cu772      Cu  0.85716945  0.38335703  0.35122768     0.44200
Cu773      Cu  0.88586591  0.38257935  0.31946675     0.42000
Cu774      Cu  0.88631049  0.35067327  0.34872411     0.43900
N775        N  0.85782200  0.36391342  0.36661264    -0.34100
N776        N  0.86830181  0.35205613  0.36568518    -0.28300
C777        C  0.86452038  0.34083829  0.37657974    -0.04400
C778        C  0.85096387  0.34584772  0.38470158     0.07800
C779        C  0.84709928  0.36054084  0.37810828     0.01600
H780        H  0.87081682  0.32959282  0.37797376     0.09200
H781        H  0.83687006  0.36797315  0.38098887     0.08300
N782        N  0.90204550  0.35186038  0.32963618    -0.35500
N783        N  0.90181740  0.36358056  0.31901452    -0.27700
C784        C  0.91289335  0.36063726  0.30775226    -0.02900
C785        C  0.92046892  0.34636534  0.31140255     0.05700
C786        C  0.91330623  0.34111856  0.32539750     0.03800
H787        H  0.91496636  0.36817310  0.29742389     0.08900
H788        H  0.91575079  0.33013076  0.33181182     0.07700
O789        O  0.00132963  0.28976855  0.23608099    -0.72300
O790        O  0.03350216  0.26692559  0.20849362    -0.73300
O791        O  0.99942626  0.26710396  0.21081793    -0.61900
O792        O  0.03517962  0.28961363  0.23363002    -0.70400
O793        O  0.03643819  0.27006685  0.25158329    -0.69900
O794        O  0.00081717  0.24741139  0.22859634    -0.61200
O795        O  0.03473689  0.24731190  0.22637156    -0.73700
O796        O  0.00262531  0.27000620  0.25379728    -0.72500
Cu797      Cu  0.01731821  0.27903924  0.22161932     1.04600
Cu798      Cu  0.01869246  0.25799527  0.24067853     1.04300
C799        C  0.99700187  0.28351139  0.24934878     0.93900
C800        C  0.03924788  0.25352333  0.21315715     0.93000
C801        C  0.99443912  0.25367688  0.21619184     0.85100
C802        C  0.04135208  0.28352587  0.24621568     0.91400
N803        N  0.17849520  0.64807498  0.31152763    -0.26700
N804        N  0.18872715  0.64794075  0.32359755    -0.34600
C805        C  0.19905266  0.63573254  0.32167745     0.01600
C806        C  0.19519355  0.62780175  0.30770144     0.07700
C807        C  0.18208978  0.63594236  0.30157911    -0.05400
H808        H  0.20884385  0.63305882  0.32972378     0.08300
H809        H  0.17572925  0.63341685  0.29060305     0.09500
Cu810      Cu  0.18890482  0.66464150  0.34179596     0.44200
Cu811      Cu  0.16039374  0.66498167  0.30865201     0.42000
Cu812      Cu  0.15888122  0.69559518  0.33887166     0.43900
N813        N  0.18701579  0.68338910  0.35777065    -0.34100
N814        N  0.17602770  0.69473925  0.35669290    -0.28300
C815        C  0.17844830  0.70552712  0.36835925    -0.04400
C816        C  0.19161159  0.70073593  0.37718404     0.07800
C817        C  0.19673063  0.68662368  0.37015040     0.01600
H818        H  0.17136188  0.71626068  0.37002398     0.09200
H819        H  0.20698482  0.67941570  0.37346504     0.08300
N820        N  0.14347822  0.69488501  0.31950512    -0.35500
N821        N  0.14390977  0.68369422  0.30834204    -0.27700
C822        C  0.13267115  0.68700018  0.29725174    -0.02900
C823        C  0.12484578  0.70098972  0.30166693     0.05700
C824        C  0.13203407  0.70559703  0.31584420     0.03800
H825        H  0.13058367  0.67989876  0.28664457     0.08900
H826        H  0.12932645  0.71611782  0.32290801     0.07700
N827        N  0.14180349  0.17580887  0.15154958    -0.26700
N828        N  0.14226139  0.18765284  0.14106061    -0.34600
C829        C  0.13025776  0.19795349  0.14424336     0.01600
C830        C  0.12185269  0.19230455  0.15737563     0.07700
C831        C  0.12951342  0.17823996  0.16164891    -0.05400
H832        H  0.12805955  0.20888937  0.13766238     0.08300
H833        H  0.12662484  0.17049753  0.17161673     0.09500
Cu834      Cu  0.15965205  0.18964529  0.12340146     0.44200
Cu835      Cu  0.15830890  0.15724466  0.15243225     0.42000
Cu836      Cu  0.19031583  0.15865259  0.12380514     0.43900
N837        N  0.17893103  0.18896347  0.10769844    -0.34100
N838        N  0.19000707  0.17762868  0.10785716    -0.28300
C839        C  0.20100855  0.18083880  0.09656721    -0.04400
C840        C  0.19673000  0.19491054  0.08895696     0.07800
C841        C  0.18264035  0.19972507  0.09630809     0.01600
H842        H  0.21153455  0.17360688  0.09431953     0.09200
H843        H  0.17567940  0.21035679  0.09375421     0.08300
N844        N  0.18853954  0.14112535  0.14123807    -0.35500
N845        N  0.17673040  0.14056867  0.15174651    -0.27700
C846        C  0.17924482  0.12821901  0.16176418    -0.02900
C847        C  0.19334938  0.12064446  0.15737418     0.05700
C848        C  0.19890034  0.12915684  0.14427750     0.03800
H849        H  0.17154112  0.12521844  0.17173605     0.08900
H850        H  0.20982308  0.12707132  0.13763152     0.07700
N851        N  0.34629669  0.39178182  0.15079183    -0.26700
N852        N  0.35760473  0.39051483  0.16178376    -0.34600
C853        C  0.35441986  0.40082752  0.17373168     0.01600
C854        C  0.34045307  0.40896246  0.17003635     0.07700
C855        C  0.33565210  0.40290588  0.15541033    -0.05400
H856        H  0.36171477  0.40223181  0.18433442     0.08300
H857        H  0.32513246  0.40619746  0.14859825     0.09500
Cu858      Cu  0.37647701  0.37447024  0.16027453     0.44200
Cu859      Cu  0.34509576  0.37806147  0.13027462     0.42000
Cu860      Cu  0.37485846  0.34725640  0.12664232     0.43900
N861        N  0.39267267  0.35601959  0.15664180    -0.34100
N862        N  0.39194650  0.34598788  0.14444425    -0.28300
C863        C  0.40347572  0.33485951  0.14604358    -0.04400
C864        C  0.41188352  0.33803361  0.15992032     0.07800
C865        C  0.40472964  0.35157063  0.16631953     0.01600
H866        H  0.40535195  0.32499660  0.13785606     0.09200
H867        H  0.40772278  0.35752510  0.17740467     0.08300
N868        N  0.35622532  0.35014323  0.11067210    -0.35500
N869        N  0.34526828  0.36149552  0.11193919    -0.27700
C870        C  0.33440083  0.35965479  0.10022811    -0.02900
C871        C  0.33876166  0.34648738  0.09116555     0.05700
C872        C  0.35267615  0.34077096  0.09812432     0.03800
H873        H  0.32390356  0.36711012  0.09870139     0.08900
H874        H  0.35951835  0.33032227  0.09465725     0.07700
N875        N  0.18033721  0.14550490  0.81384057    -0.26700
N876        N  0.19106778  0.14534616  0.82544339    -0.34600
C877        C  0.20206653  0.13401708  0.82236591     0.01600
C878        C  0.19807890  0.12669049  0.80810874     0.07700
C879        C  0.18421818  0.13425800  0.80302545    -0.05400
H880        H  0.21235762  0.13153313  0.82983738     0.08300
H881        H  0.17754879  0.13198809  0.79217344     0.09500
Cu882      Cu  0.19089613  0.16110087  0.84435628     0.44200
Cu883      Cu  0.16144084  0.16151793  0.81288043     0.42000
Cu884      Cu  0.16026094  0.19180141  0.84394643     0.43900
N885        N  0.18962261  0.17934900  0.86084401    -0.34100
N886        N  0.17855502  0.19067899  0.86074435    -0.28300
C887        C  0.18184196  0.20125518  0.87242147    -0.04400
C888        C  0.19567045  0.19631029  0.88016073     0.07800
C889        C  0.20022093  0.18236625  0.87251930     0.01600
H890        H  0.17492916  0.21197220  0.87474325     0.09200
H891        H  0.21074385  0.17517592  0.87490176     0.08300
N892        N  0.14408530  0.19073012  0.82510231    -0.35500
N893        N  0.14452820  0.17961926  0.81384966    -0.27700
C894        C  0.13293522  0.18258029  0.80310378    -0.02900
C895        C  0.12480004  0.19624687  0.80775072     0.05700
C896        C  0.13217708  0.20108462  0.82178407     0.03800
H897        H  0.13084876  0.17547966  0.79247809     0.08900
H898        H  0.12936239  0.21152486  0.82890766     0.07700
N899        N  0.39162318  0.34886944  0.81964753    -0.26700
N900        N  0.39148126  0.36079338  0.80925936    -0.34600
C901        C  0.40316076  0.35848611  0.79844588     0.01600
C902        C  0.41103632  0.34438932  0.80214287     0.07700
C903        C  0.40341058  0.33860164  0.81568844    -0.05400
H904        H  0.40550093  0.36635335  0.78842844     0.08300
H905        H  0.40605146  0.32766306  0.82209739     0.09500
Cu906      Cu  0.37482331  0.37911651  0.80957933     0.44200
Cu907      Cu  0.37534965  0.34701989  0.83831086     0.42000
Cu908      Cu  0.34585132  0.37917188  0.84156136     0.43900
N909        N  0.35589278  0.39503566  0.81091683    -0.34100
N910        N  0.34527405  0.39516496  0.82263742    -0.28300
C911        C  0.33392930  0.40613614  0.81934282    -0.04400
C912        C  0.33759114  0.41321253  0.80482630     0.07800
C913        C  0.35162776  0.40589660  0.79986349     0.01600
H914        H  0.32352889  0.40841148  0.82673472     0.09200
H915        H  0.35804900  0.40790010  0.78880678     0.08300
N916        N  0.34695349  0.35969728  0.85687426    -0.35500
N917        N  0.35746384  0.34790749  0.85552580    -0.27700
C918        C  0.35414454  0.33665614  0.86653485    -0.02900
C919        C  0.34090860  0.34157253  0.87521718     0.05700
C920        C  0.33669695  0.35626388  0.86878932     0.03800
H921        H  0.36071699  0.32555718  0.86788176     0.08900
H922        H  0.32666126  0.36374620  0.87217890     0.07700
O923        O  0.26402389  0.25225348  0.00115071    -0.72300
O924        O  0.28718421  0.27645270  0.96642932    -0.73300
O925        O  0.28872351  0.27567748  0.00030682    -0.61900
O926        O  0.26284881  0.25289951  0.96726229    -0.70400
O927        O  0.24447221  0.27212564  0.96817789    -0.69900
O928        O  0.27036657  0.29490147  0.00160089    -0.61200
O929        O  0.26884350  0.29568120  0.96778059    -0.73700
O930        O  0.24577021  0.27158662  0.00204651    -0.72500
Cu931      Cu  0.27634795  0.26364604  0.98376176     1.04600
Cu932      Cu  0.25672555  0.28423925  0.98495102     1.04300
C933        C  0.25115874  0.25817218  0.00702255     0.93900
C934        C  0.28157015  0.28987387  0.96161027     0.93000
C935        C  0.28367779  0.28886025  0.00617010     0.85100
C936        C  0.24964362  0.25891238  0.96243293     0.91400
O937        O  0.28622169  0.50044547  0.23521363    -0.72300
O938        O  0.26233298  0.53645386  0.25670009    -0.73300
O939        O  0.26173237  0.50281627  0.25866560    -0.61900
O940        O  0.28701503  0.53438687  0.23357878    -0.70400
O941        O  0.26893712  0.53377222  0.21411340    -0.69900
O942        O  0.24309151  0.50227636  0.23973430    -0.61200
O943        O  0.24425607  0.53596141  0.23723237    -0.73700
O944        O  0.26759698  0.50004392  0.21627394    -0.72500
Cu945      Cu  0.27498732  0.51853172  0.24669558     1.04600
Cu946      Cu  0.25533954  0.51796842  0.22615141     1.04300
C947        C  0.28057094  0.49461449  0.22225132     0.93900
C948        C  0.24946788  0.54179543  0.25032377     0.93000
C949        C  0.24832521  0.49777956  0.25338555     0.85100
C950        C  0.28203475  0.53911798  0.21996055     0.91400
O951        O  0.50330100  0.25990698  0.25117739    -0.72300
O952        O  0.53695420  0.28488582  0.22744876    -0.73300
O953        O  0.50303769  0.28511730  0.22848808    -0.61900
O954        O  0.53727037  0.25981421  0.25043617    -0.70400
O955        O  0.53681814  0.24189934  0.23084073    -0.69900
O956        O  0.50219975  0.26735600  0.20876029    -0.61200
O957        O  0.53613639  0.26701397  0.20781457    -0.73700
O958        O  0.50290329  0.24214578  0.23142786    -0.72500
Cu959      Cu  0.52017709  0.27306059  0.24007233     1.04600
Cu960      Cu  0.51951588  0.25398035  0.21902578     1.04300
C961        C  0.49780402  0.24705066  0.24494888     0.93900
C962        C  0.54173425  0.27990100  0.21379751     0.93000
C963        C  0.49717779  0.28029337  0.21524550     0.85100
C964        C  0.54237502  0.24680457  0.24422052     0.91400
O965        O  0.25071714  0.27101584  0.49832216    -0.72300
O966        O  0.27275327  0.24787091  0.46226600    -0.73300
O967        O  0.27507063  0.24740083  0.49616608    -0.61900
O968        O  0.24823719  0.27139922  0.46449742    -0.70400
O969        O  0.26633780  0.29085074  0.46359339    -0.69900
O970        O  0.29336983  0.26665705  0.49511602    -0.61200
O971        O  0.29086421  0.26729976  0.46129740    -0.73700
O972        O  0.26909840  0.29019609  0.49726785    -0.72500
Cu973      Cu  0.26104214  0.25874585  0.48034299     1.04600
Cu974      Cu  0.28056321  0.27940284  0.47926388     1.04300
C975        C  0.25646556  0.28424083  0.50346631     0.93900
C976        C  0.28536956  0.25400346  0.45612254     0.93000
C977        C  0.28842967  0.25329865  0.50070749     0.85100
C978        C  0.25296628  0.28490867  0.45911569     0.91400
O979        O  0.26735550  0.74877346  0.49981414    -0.72300
O980        O  0.28938211  0.77263067  0.46471885    -0.73300
O981        O  0.29071745  0.77310723  0.49846283    -0.61900
O982        O  0.26594647  0.74827517  0.46617576    -0.70400
O983        O  0.24673468  0.76669989  0.46650905    -0.69900
O984        O  0.27157089  0.79159024  0.49907445    -0.61200
O985        O  0.27020850  0.79108061  0.46517870    -0.73700
O986        O  0.24802528  0.76706283  0.50034483    -0.72500
Cu987      Cu  0.27901377  0.76007065  0.48228715     1.04600
Cu988      Cu  0.25845385  0.77977957  0.48281650     1.04300
C989        C  0.25418501  0.75403903  0.50552645     0.93900
C990        C  0.28324858  0.78557521  0.45934448     0.93000
C991        C  0.28509883  0.78625718  0.50385786     0.85100
C992        C  0.25247613  0.75354048  0.46121684     0.91400
O993        O  0.77824916  0.28431462  0.49841341    -0.72300
O994        O  0.75516340  0.25961692  0.46431290    -0.73300
O995        O  0.75431049  0.26018943  0.49825561    -0.61900
O996        O  0.77929847  0.28376145  0.46464526    -0.70400
O997        O  0.79808885  0.26493696  0.46543195    -0.69900
O998        O  0.77318653  0.24144190  0.49884421    -0.61200
O999        O  0.77399654  0.24084325  0.46498170    -0.73700
O1000       O  0.79699775  0.26544753  0.49920672    -0.72500
Cu1001     Cu  0.76607617  0.27261960  0.48134541     1.04600
Cu1002     Cu  0.78620980  0.25250912  0.48211591     1.04300
C1003       C  0.79129193  0.27875456  0.50416901     0.93900
C1004       C  0.76084345  0.24628864  0.45935289     0.93000
C1005       C  0.75993845  0.24713654  0.50394487     0.85100
C1006       C  0.79276400  0.27817483  0.45993837     0.91400
O1007       O  0.24794068  0.53422595  0.72041404    -0.72300
O1008       O  0.27012814  0.49934916  0.74511640    -0.73300
O1009       O  0.27085074  0.53337783  0.74547348    -0.61900
O1010       O  0.24699271  0.50037628  0.72017563    -0.70400
O1011       O  0.26641323  0.50033924  0.70203015    -0.69900
O1012       O  0.29061546  0.53301310  0.72770671    -0.61200
O1013       O  0.28944639  0.49914831  0.72686280    -0.73700
O1014       O  0.26775057  0.53423166  0.70268369    -0.72500
Cu1015     Cu  0.25829261  0.51684718  0.73343793     1.04600
Cu1016     Cu  0.27923663  0.51666618  0.71420165     1.04300
C1017       C  0.25435341  0.53967897  0.70764020     0.93900
C1018       C  0.28335537  0.49375016  0.73978043     0.93000
C1019       C  0.28447963  0.53837558  0.74065146     0.85100
C1020       C  0.25287891  0.49523461  0.70704623     0.91400
O1021       O  0.79944187  0.53467232  0.23316490    -0.72300
O1022       O  0.77495972  0.49970772  0.21108056    -0.73300
O1023       O  0.77528452  0.53343264  0.20915322    -0.61900
O1024       O  0.79928710  0.50087989  0.23496321    -0.70400
O1025       O  0.78069693  0.50182751  0.25391897    -0.69900
O1026       O  0.75641006  0.53449896  0.22782157    -0.61200
O1027       O  0.75629550  0.50068220  0.22997575    -0.73700
O1028       O  0.78062320  0.53573292  0.25189551    -0.72500
Cu1029     Cu  0.78789344  0.51711157  0.22145223     1.04600
Cu1030     Cu  0.76785224  0.51821656  0.24157622     1.04300
C1031       C  0.79390380  0.54065517  0.24609722     0.93900
C1032       C  0.76163332  0.49490457  0.21687770     0.93000
C1033       C  0.76197720  0.53897315  0.21428191     0.85100
C1034       C  0.79398063  0.49636664  0.24855707     0.91400
O1035       O  0.50494085  0.24991638  0.72914483    -0.72300
O1036       O  0.53708005  0.27702618  0.75237720    -0.73300
O1037       O  0.50320801  0.27419978  0.75268220    -0.61900
O1038       O  0.53883016  0.25275461  0.72891146    -0.70400
O1039       O  0.53699780  0.27098511  0.70967123    -0.69900
O1040       O  0.50163371  0.29293459  0.73390777    -0.61200
O1041       O  0.53552873  0.29530370  0.73315417    -0.73700
O1042       O  0.50301378  0.26854303  0.71029849    -0.72500
Cu1043     Cu  0.52106418  0.26283070  0.74143671     1.04600
Cu1044     Cu  0.51922276  0.28258132  0.72107615     1.04300
C1045       C  0.49880992  0.25503140  0.71611606     0.93900
C1046       C  0.54147495  0.29037709  0.74633112     0.93000
C1047       C  0.49683634  0.28695028  0.74713625     0.85100
C1048       C  0.54361754  0.25852168  0.71560078     0.91400
O1049       O  0.53496516  0.76337988  0.24938744    -0.72300
O1050       O  0.50107874  0.74020849  0.22437851    -0.73300
O1051       O  0.53511894  0.73929395  0.22546315    -0.61900
O1052       O  0.50101303  0.76435401  0.24837246    -0.70400
O1053       O  0.50222682  0.78292682  0.22941414    -0.69900
O1054       O  0.53620686  0.75787238  0.20650772    -0.61200
O1055       O  0.50223665  0.75895827  0.20558816    -0.73700
O1056       O  0.53607423  0.78194635  0.23041547    -0.72500
Cu1057     Cu  0.51800158  0.75112763  0.23755175     1.04600
Cu1058     Cu  0.51922433  0.77106206  0.21732571     1.04300
C1059       C  0.54081776  0.77637129  0.24382778     0.93900
C1060       C  0.49626405  0.74600380  0.21107289     0.93000
C1061       C  0.54108199  0.74463203  0.21243745     0.85100
C1062       C  0.49631773  0.77768487  0.24249224     0.91400
O1063       O  0.79234399  0.77976120  0.49331439    -0.72300
O1064       O  0.76457061  0.80450484  0.46287129    -0.73300
O1065       O  0.76815328  0.80320423  0.49650269    -0.61900
O1066       O  0.78897161  0.78113973  0.45961430    -0.70400
O1067       O  0.77082177  0.76174560  0.46077276    -0.69900
O1068       O  0.74936729  0.78440576  0.49740353    -0.61200
O1069       O  0.74633754  0.78516774  0.46365262    -0.73700
O1070       O  0.77366638  0.76087783  0.49450338    -0.72500
Cu1071     Cu  0.77914081  0.79282883  0.47801881     1.04600
Cu1072     Cu  0.75939753  0.77237577  0.47911538     1.04300
C1073       C  0.78724838  0.76642805  0.49881888     0.93900
C1074       C  0.75113541  0.79869771  0.45840446     0.93000
C1075       C  0.75551726  0.79734554  0.50278508     0.85100
C1076       C  0.78332793  0.76791315  0.45445077     0.91400
O1077       O  0.75139987  0.50725091  0.73087887    -0.72300
O1078       O  0.77413615  0.53998525  0.70420777    -0.73300
O1079       O  0.77590256  0.50619137  0.70747350    -0.61900
O1080       O  0.74977941  0.54109600  0.72773305    -0.70400
O1081       O  0.76842073  0.54380755  0.74645394    -0.69900
O1082       O  0.79425035  0.50853087  0.72653650    -0.61200
O1083       O  0.79293691  0.54239277  0.72281003    -0.73700
O1084       O  0.76964412  0.50993610  0.74998201    -0.72500
Cu1085     Cu  0.76218477  0.52353257  0.71691337     1.04600
Cu1086     Cu  0.78197228  0.52627008  0.73711127     1.04300
C1087       C  0.75684931  0.50344065  0.74463430     0.93900
C1088       C  0.78707590  0.54637276  0.70924613     0.93000
C1089       C  0.78909221  0.50175850  0.71386442     0.85100
C1090       C  0.75503838  0.54799639  0.74030841     0.91400
O1091       O  0.53643658  0.74802599  0.72144489    -0.72300
O1092       O  0.50260814  0.77398254  0.69895056    -0.73300
O1093       O  0.53664089  0.77327141  0.69867397    -0.61900
O1094       O  0.50232896  0.74860629  0.72186593    -0.70400
O1095       O  0.50307711  0.76663864  0.74135342    -0.69900
O1096       O  0.53693850  0.79119542  0.71828060    -0.61200
O1097       O  0.50326061  0.79169051  0.71874158    -0.73700
O1098       O  0.53689144  0.76605901  0.74094194    -0.72500
Cu1099     Cu  0.51947084  0.76031773  0.70951847     1.04600
Cu1100     Cu  0.52005334  0.77948246  0.73049881     1.04300
C1101       C  0.54201320  0.75303971  0.73475969     0.93900
C1102       C  0.49771462  0.78702277  0.70531933     0.93000
C1103       C  0.54211537  0.78616661  0.70482349     0.85100
C1104       C  0.49736454  0.75379284  0.73537345     0.91400
C1105       C  0.32373222  0.31396472  0.90767880     0.16500
C1106       C  0.32056119  0.30154396  0.91847806    -0.32500
C1107       C  0.30768550  0.30355635  0.92904808     0.20900
C1108       C  0.29829965  0.31727543  0.92881649     0.03100
C1109       C  0.30144726  0.32968647  0.91798676    -0.22200
C1110       C  0.31439170  0.32770854  0.90747945     0.12300
S1111       S  0.33893854  0.31390884  0.89405520    -0.05900
C1112       C  0.33272038  0.33265309  0.88804344    -0.09300
C1113       C  0.31947733  0.33847903  0.89621928    -0.26000
S1114       S  0.28321297  0.31737970  0.94258082    -0.03200
C1115       C  0.28966648  0.29876321  0.94876448    -0.16600
C1116       C  0.30280503  0.29289070  0.94049658    -0.14600
H1117       H  0.32786361  0.29080968  0.91868629     0.20800
H1118       H  0.29417011  0.34043932  0.91780373     0.16800
H1119       H  0.31388167  0.34999663  0.89412147     0.19300
H1120       H  0.30843859  0.28140368  0.94269185     0.12700
C1121       C  0.44501615  0.32981562  0.77476525     0.16500
C1122       C  0.45663730  0.32787388  0.76280784    -0.32500
C1123       C  0.46562317  0.31366826  0.76292011     0.20900
C1124       C  0.46318655  0.30197532  0.77444919     0.03100
C1125       C  0.45154087  0.30389553  0.78635104    -0.22200
C1126       C  0.44254161  0.31806558  0.78621876     0.12300
S1127       S  0.43282581  0.34611038  0.77669866    -0.05900
C1128       C  0.42425841  0.33696953  0.79309291    -0.09300
C1129       C  0.43065582  0.32209255  0.79677604    -0.26000
S1130       S  0.47540162  0.28570693  0.77269699    -0.03200
C1131       C  0.48384781  0.29466384  0.75617568    -0.16600
C1132       C  0.47745759  0.30951090  0.75232333    -0.14600
H1133       H  0.45857388  0.33699504  0.75384278     0.20800
H1134       H  0.44959646  0.29476968  0.79531079     0.16800
H1135       H  0.42678633  0.31456139  0.80655682     0.19300
H1136       H  0.48131650  0.31687693  0.74240443     0.12700
C1137       C  0.30892274  0.44409274  0.78625326     0.16500
C1138       C  0.29643424  0.45476983  0.78270013    -0.32500
C1139       C  0.29750709  0.46348421  0.76838988     0.20900
C1140       C  0.31038610  0.46156871  0.75807033     0.03100
C1141       C  0.32279779  0.45087406  0.76158635    -0.22200
C1142       C  0.32177043  0.44225399  0.77589842     0.12300
S1143       S  0.31008133  0.43255110  0.80307450    -0.05900
C1144       C  0.32808884  0.42522857  0.79605875    -0.09300
C1145       C  0.33277921  0.43146809  0.78143779    -0.26000
S1146       S  0.30971062  0.47335450  0.74147749    -0.03200
C1147       C  0.29190687  0.48107380  0.74848730    -0.16600
C1148       C  0.28679286  0.47468161  0.76291996    -0.14600
H1149       H  0.28640330  0.45630552  0.79077882     0.20800
H1150       H  0.33289369  0.44942882  0.75356672     0.16800
H1151       H  0.34368509  0.42834393  0.77515088     0.19300
H1152       H  0.27595759  0.47817121  0.76914885     0.12700
C1153       C  0.22316372  0.21366505  0.91249205     0.16500
C1154       C  0.23555980  0.21688619  0.92327819    -0.32500
C1155       C  0.23445163  0.23095992  0.93232111     0.20900
C1156       C  0.22160115  0.24138512  0.93072354     0.03100
C1157       C  0.20920680  0.23816079  0.91992093    -0.22200
C1158       C  0.21030759  0.22407694  0.91087256     0.12300
S1159       S  0.22234498  0.19730260  0.90035554    -0.05900
C1160       C  0.20449520  0.20457514  0.89295308    -0.09300
C1161       C  0.19952890  0.21891271  0.89968081    -0.26000
S1162       S  0.22250237  0.25781340  0.94282239    -0.03200
C1163       C  0.24036447  0.25051995  0.95011895    -0.16600
C1164       C  0.24527386  0.23614789  0.94342704    -0.14600
H1165       H  0.24562935  0.20879241  0.92455385     0.20800
H1166       H  0.19915921  0.24627568  0.91861434     0.16800
H1167       H  0.18870127  0.22530706  0.89649379     0.19300
H1168       H  0.25617153  0.22981774  0.94653720     0.12700
C1169       C  0.31286079  0.30571347  0.03716685     0.16500
C1170       C  0.32560453  0.30855619  0.04765467    -0.32500
C1171       C  0.32431104  0.32170414  0.05797699     0.20900
C1172       C  0.31100731  0.33166626  0.05780199     0.03100
C1173       C  0.29832334  0.32890529  0.04721439    -0.22200
C1174       C  0.29955813  0.31568805  0.03697023     0.12300
S1175       S  0.31188685  0.29009065  0.02408719    -0.05900
C1176       C  0.29334568  0.29707224  0.01830155    -0.09300
C1177       C  0.28832338  0.31081476  0.02611214    -0.26000
S1178       S  0.31155976  0.34670925  0.07157710    -0.03200
C1179       C  0.32987855  0.33943639  0.07771065    -0.16600
C1180       C  0.33520849  0.32612985  0.06934159    -0.14600
H1181       H  0.33596545  0.30074102  0.04791348     0.20800
H1182       H  0.28786136  0.33659130  0.04711210     0.16800
H1183       H  0.27698981  0.31681178  0.02408410     0.19300
H1184       H  0.34634208  0.31985735  0.07156267     0.12700
C1185       C  0.32379430  0.44121936  0.19829779     0.16500
C1186       C  0.32079172  0.45221543  0.21063358    -0.32500
C1187       C  0.30750981  0.46241325  0.20892536     0.20900
C1188       C  0.29768903  0.46162555  0.19556790     0.03100
C1189       C  0.30069660  0.45069483  0.18329363    -0.22200
C1190       C  0.31392913  0.44056998  0.18498261     0.12300
S1191       S  0.33931999  0.42786537  0.19784833    -0.05900
C1192       C  0.33240647  0.42147523  0.17949448    -0.09300
C1193       C  0.31876916  0.42929112  0.17420851    -0.26000
S1194       S  0.28217599  0.47483089  0.19560825    -0.03200
C1195       C  0.28891182  0.48161909  0.21383005    -0.16600
C1196       C  0.30253368  0.47396102  0.21949970    -0.14600
H1197       H  0.32846869  0.45282046  0.22105533     0.20800
H1198       H  0.29304887  0.45012257  0.17284106     0.16800
H1199       H  0.31272193  0.42699259  0.16299009     0.19300
H1200       H  0.30842535  0.47666520  0.23071401     0.12700
C1201       C  0.46492827  0.30926242  0.20020751     0.16500
C1202       C  0.45413746  0.32192536  0.19816102    -0.32500
C1203       C  0.44415177  0.32151133  0.18473171     0.20900
C1204       C  0.44485968  0.30907295  0.17377064     0.03100
C1205       C  0.45568801  0.29637860  0.17580675    -0.22200
C1206       C  0.46568623  0.29678027  0.18928653     0.12300
S1207       S  0.47793531  0.30759647  0.21579815    -0.05900
C1208       C  0.48453943  0.28986857  0.20757403    -0.09300
C1209       C  0.47696388  0.28557152  0.19345406    -0.26000
S1210       S  0.43158664  0.31082246  0.15834483    -0.03200
C1211       C  0.42500087  0.32847018  0.16682677    -0.16600
C1212       C  0.43281023  0.33266756  0.18081717    -0.14600
H1213       H  0.45351564  0.33165534  0.20669749     0.20800
H1214       H  0.45626075  0.28661927  0.16730476     0.16800
H1215       H  0.47953412  0.27483913  0.18665002     0.19300
H1216       H  0.43030302  0.34326350  0.18784261     0.12700
C1217       C  0.22415393  0.21195981  0.05619389     0.16500
C1218       C  0.23617738  0.21481519  0.04483067    -0.32500
C1219       C  0.23581272  0.22948693  0.03666151     0.20900
C1220       C  0.22400657  0.24079540  0.03968431     0.03100
C1221       C  0.21200230  0.23794065  0.05103403    -0.22200
C1222       C  0.21235260  0.22327568  0.05917078     0.12300
S1223       S  0.22252907  0.19499599  0.06745999    -0.05900
C1224       C  0.20574247  0.20322471  0.07626266    -0.09300
C1225       C  0.20173018  0.21832347  0.07063464    -0.26000
S1226       S  0.22554670  0.25778508  0.02849560    -0.03200
C1227       C  0.24229004  0.24961044  0.01959967    -0.16600
C1228       C  0.24638679  0.23449395  0.02513814    -0.14600
H1229       H  0.24540272  0.20599716  0.04246595     0.20800
H1230       H  0.20277829  0.24675955  0.05340348     0.16800
H1231       H  0.19168302  0.22539925  0.07478893     0.19300
H1232       H  0.25647519  0.22751588  0.02089866     0.12700
C1233       C  0.22153052  0.59283839  0.29362433     0.16500
C1234       C  0.23328491  0.58100419  0.29171523    -0.32500
C1235       C  0.23333228  0.57237420  0.27734599     0.20900
C1236       C  0.22208730  0.57527635  0.26548012     0.03100
C1237       C  0.21032706  0.58707458  0.26740457    -0.22200
C1238       C  0.21036421  0.59578839  0.28170677     0.12300
S1239       S  0.21968954  0.60492708  0.30995626    -0.05900
C1240       C  0.20377211  0.61413992  0.30056400    -0.09300
C1241       C  0.20011696  0.60796329  0.28563153    -0.26000
S1242       S  0.22411160  0.56352714  0.24895382    -0.03200
C1243       C  0.24038818  0.55470058  0.25805268    -0.16600
C1244       C  0.24392102  0.56057361  0.27312928    -0.14600
H1245       H  0.24208628  0.57872565  0.30095191     0.20800
H1246       H  0.20160424  0.58943938  0.25811418     0.16800
H1247       H  0.19064466  0.61228347  0.27791374     0.19300
H1248       H  0.25365391  0.55639561  0.28061175     0.12700
C1249       C  0.20775370  0.72796060  0.41036780     0.16500
C1250       C  0.21097407  0.74043392  0.42108551    -0.32500
C1251       C  0.22444816  0.73883134  0.43095169     0.20900
C1252       C  0.23423525  0.72540717  0.43021609     0.03100
C1253       C  0.23096068  0.71292405  0.41958586    -0.22200
C1254       C  0.21754928  0.71455041  0.40969280     0.12300
S1255       S  0.19227957  0.72773584  0.39706320    -0.05900
C1256       C  0.19916298  0.70941127  0.39049000    -0.09300
C1257       C  0.21266202  0.70385105  0.39835574    -0.26000
S1258       S  0.25019702  0.72583502  0.44286375    -0.03200
C1259       C  0.24364471  0.74430931  0.44923309    -0.16600
C1260       C  0.22977146  0.74974096  0.44192876    -0.14600
H1261       H  0.20341511  0.75097962  0.42159914     0.20800
H1262       H  0.23863529  0.70246873  0.41893268     0.16800
H1263       H  0.21874943  0.69267920  0.39581038     0.19300
H1264       H  0.22402725  0.76112586  0.44436295     0.12700
C1265       C  0.07066900  0.23657761  0.18417241     0.16500
C1266       C  0.08184222  0.23390960  0.17193083    -0.32500
C1267       C  0.09035756  0.21940882  0.17215621     0.20900
C1268       C  0.08776475  0.20802647  0.18394973     0.03100
C1269       C  0.07653957  0.21064806  0.19612056    -0.22200
C1270       C  0.06814882  0.22519233  0.19598112     0.12300
S1271       S  0.05937148  0.25352160  0.18628112    -0.05900
C1272       C  0.05122223  0.24517375  0.20328420    -0.09300
C1273       C  0.05703159  0.23006413  0.20699187    -0.26000
S1274       S  0.09962549  0.19145915  0.18243692    -0.03200
C1275       C  0.10835213  0.19998781  0.16581210    -0.16600
C1276       C  0.10211681  0.21482936  0.16165003    -0.14600
H1277       H  0.08395377  0.24281709  0.16276947     0.20800
H1278       H  0.07459432  0.20183880  0.20541362     0.16800
H1279       H  0.05335127  0.22303044  0.21722869     0.19300
H1280       H  0.10618386  0.22206180  0.15171142     0.12700
C1281       C  0.96825569  0.30109071  0.28051596     0.16500
C1282       C  0.95864953  0.30422469  0.29390925    -0.32500
C1283       C  0.94986512  0.31855257  0.29400197     0.20900
C1284       C  0.95069701  0.32929725  0.28138253     0.03100
C1285       C  0.96033935  0.32619917  0.26804286    -0.22200
C1286       C  0.96903545  0.31185209  0.26790416     0.12300
S1287       S  0.97970022  0.28434199  0.27798868    -0.05900
C1288       C  0.98558326  0.29194128  0.25974875    -0.09300
C1289       C  0.97895706  0.30667078  0.25593937    -0.26000
S1290       S  0.93893412  0.34582307  0.28356659    -0.03200
C1291       C  0.93266428  0.33816994  0.30164169    -0.16600
C1292       C  0.93954667  0.32360137  0.30572268    -0.14600
H1293       H  0.95795953  0.29583053  0.30373835     0.20800
H1294       H  0.96093611  0.33453760  0.25816208     0.16800
H1295       H  0.98130799  0.31325333  0.24504091     0.19300
H1296       H  0.93699047  0.31694368  0.31652424     0.12700
C1297       C  0.82339997  0.46743141  0.26885284     0.16500
C1298       C  0.83633596  0.45750053  0.27282739    -0.32500
C1299       C  0.83549857  0.44905198  0.28728092     0.20900
C1300       C  0.82243909  0.45052459  0.29742666     0.03100
C1301       C  0.80953516  0.46057162  0.29350912    -0.22200
C1302       C  0.81030292  0.46892341  0.27895991     0.12300
S1303       S  0.82201299  0.47833141  0.25167218    -0.05900
C1304       C  0.80354038  0.48498541  0.25807798    -0.09300
C1305       C  0.79884953  0.47903356  0.27285039    -0.26000
S1306       S  0.82356897  0.43889009  0.31418696    -0.03200
C1307       C  0.84176604  0.43184354  0.30737261    -0.16600
C1308       C  0.84664190  0.43841045  0.29293649    -0.14600
H1309       H  0.84652120  0.45625180  0.26489378     0.20800
H1310       H  0.79926428  0.46166702  0.30135161     0.16800
H1311       H  0.78767247  0.48191685  0.27877488     0.19300
H1312       H  0.85761363  0.43537951  0.28672305     0.12700
C1313       C  0.82227368  0.29748865  0.43060843     0.16500
C1314       C  0.83523723  0.30135185  0.42068970    -0.32500
C1315       C  0.83475554  0.31612281  0.41273057     0.20900
C1316       C  0.82198288  0.32659471  0.41459957     0.03100
C1317       C  0.80903227  0.32273257  0.42450282    -0.22200
C1318       C  0.80948062  0.30795360  0.43240930     0.12300
S1319       S  0.82058525  0.28021804  0.44137644    -0.05900
C1320       C  0.80241869  0.28716480  0.44831888    -0.09300
C1321       C  0.79803090  0.30208476  0.44254161    -0.26000
S1322       S  0.82356628  0.34384385  0.40383111    -0.03200
C1323       C  0.84159821  0.33686031  0.39661042    -0.16600
C1324       C  0.84608101  0.32195776  0.40242057    -0.14600
H1325       H  0.84522996  0.29320067  0.41921699     0.20800
H1326       H  0.79902346  0.33087115  0.42594693     0.16800
H1327       H  0.78712397  0.30837292  0.44570625     0.19300
H1328       H  0.85693301  0.31563305  0.39917730     0.12700
C1329       C  0.94044818  0.23005574  0.17359335     0.16500
C1330       C  0.95124852  0.24251525  0.17683175    -0.32500
C1331       C  0.96157503  0.24063335  0.18994913     0.20900
C1332       C  0.96105394  0.22703083  0.19945950     0.03100
C1333       C  0.95020892  0.21466467  0.19628326    -0.22200
C1334       C  0.93999856  0.21647927  0.18313186     0.12300
S1335       S  0.92720628  0.22973516  0.15803761    -0.05900
C1336       C  0.92106639  0.21107619  0.16444967    -0.09300
C1337       C  0.92890129  0.20558132  0.17798292    -0.26000
S1338       S  0.97464268  0.22682460  0.21465173    -0.03200
C1339       C  0.98123616  0.24523867  0.20814468    -0.16600
C1340       C  0.97316002  0.25118196  0.19489813    -0.14600
H1341       H  0.95169826  0.25310480  0.16937342     0.20800
H1342       H  0.94985835  0.20400762  0.20365401     0.16800
H1343       H  0.92673237  0.19416090  0.18371107     0.19300
H1344       H  0.97568218  0.26253308  0.18916377     0.12700
C1345       C  0.09065761  0.31089005  0.29201369     0.16500
C1346       C  0.07999169  0.29828891  0.28889748    -0.32500
C1347       C  0.07144942  0.29874314  0.27444551     0.20900
C1348       C  0.07348137  0.31116034  0.26361051     0.03100
C1349       C  0.08413078  0.32369338  0.26671534    -0.22200
C1350       C  0.09260161  0.32327228  0.28113745     0.12300
S1351       S  0.10218371  0.31267532  0.30878965    -0.05900
C1352       C  0.10964580  0.33029882  0.30101872    -0.09300
C1353       C  0.10342068  0.33443453  0.28623743    -0.26000
S1354       S  0.06187900  0.30980534  0.24692957    -0.03200
C1355       C  0.05408164  0.29233200  0.25457953    -0.16600
C1356       C  0.06032719  0.28781622  0.26928401    -0.14600
H1357       H  0.07837717  0.28861071  0.29737554     0.20800
H1358       H  0.08568394  0.33342254  0.25827420     0.16800
H1359       H  0.10668437  0.34500128  0.27946494     0.19300
H1360       H  0.05672999  0.27728563  0.27594376     0.12700
C1361       C  0.22193857  0.33110345  0.41243233     0.16500
C1362       C  0.23406793  0.32878984  0.42380121    -0.32500
C1363       C  0.23471654  0.31389008  0.43154589     0.20900
C1364       C  0.22368196  0.30192108  0.42825019     0.03100
C1365       C  0.21156419  0.30425202  0.41693800    -0.22200
C1366       C  0.21100897  0.31906064  0.40910325     0.12300
S1367       S  0.21923092  0.34813757  0.40144804    -0.05900
C1368       C  0.20323055  0.33887758  0.39226041    -0.09300
C1369       C  0.20026538  0.32343742  0.39756470    -0.26000
S1370       S  0.22650630  0.28466666  0.43876347    -0.03200
C1371       C  0.24289082  0.29353787  0.44756671    -0.16600
C1372       C  0.24581958  0.30913217  0.44264941    -0.14600
H1373       H  0.24270055  0.33811504  0.42637543     0.20800
H1374       H  0.20301859  0.29487587  0.41425803     0.16800
H1375       H  0.19082075  0.31572952  0.39317635     0.19300
H1376       H  0.25558386  0.31653392  0.44689090     0.12700
C1377       C  0.22845752  0.46995485  0.28373474     0.16500
C1378       C  0.22480868  0.46017518  0.29680999    -0.32500
C1379       C  0.21071328  0.45114453  0.29602387     0.20900
C1380       C  0.20055200  0.45199732  0.28293502     0.03100
C1381       C  0.20406245  0.46200401  0.26996493    -0.22200
C1382       C  0.21831277  0.47083078  0.27062413     0.12300
S1383       S  0.24544301  0.48108259  0.28203509    -0.05900
C1384       C  0.23889782  0.48688659  0.26339125    -0.09300
C1385       C  0.22422050  0.48062000  0.25889385    -0.26000
S1386       S  0.18454158  0.43937767  0.28389173    -0.03200
C1387       C  0.19171913  0.43275338  0.30204193    -0.16600
C1388       C  0.20564652  0.44021602  0.30709081    -0.14600
H1389       H  0.23282303  0.45931247  0.30695754     0.20800
H1390       H  0.19626527  0.46254083  0.25962886     0.16800
H1391       H  0.21830224  0.48294307  0.24760476     0.19300
H1392       H  0.21206512  0.43743259  0.31798824     0.12700
C1393       C  0.21332513  0.30800392  0.55668206     0.16500
C1394       C  0.21638164  0.29590557  0.54550347    -0.32500
C1395       C  0.22988165  0.29764320  0.53570267     0.20900
C1396       C  0.23993471  0.31080341  0.53698816     0.03100
C1397       C  0.23690094  0.32288549  0.54820188    -0.22200
C1398       C  0.22336518  0.32116771  0.55797059     0.12300
S1399       S  0.19742871  0.30824438  0.56947738    -0.05900
C1400       C  0.20433245  0.32632402  0.57661902    -0.09300
C1401       C  0.21828453  0.33172025  0.56942111    -0.26000
S1402       S  0.25560794  0.31073321  0.52390205    -0.03200
C1403       C  0.24851262  0.29278619  0.51660855    -0.16600
C1404       C  0.23475120  0.28724538  0.52402543    -0.14600
H1405       H  0.20853602  0.28563933  0.54442990     0.20800
H1406       H  0.24468701  0.33320268  0.54920680     0.16800
H1407       H  0.22433941  0.34281353  0.57228226     0.19300
H1408       H  0.22860334  0.27623905  0.52099441     0.12700
C1409       C  0.23456561  0.46414839  0.67872489     0.16500
C1410       C  0.23143788  0.45310281  0.66652449    -0.32500
C1411       C  0.21697777  0.44460997  0.66725432     0.20900
C1412       C  0.20604027  0.44708125  0.67949156     0.03100
C1413       C  0.20912577  0.45819579  0.69166109    -0.22200
C1414       C  0.22366275  0.46658955  0.69100572     0.12300
S1415       S  0.25159249  0.47534393  0.68017942    -0.05900
C1416       C  0.24400894  0.48334400  0.69758573    -0.09300
C1417       C  0.22901497  0.47761565  0.70188462    -0.26000
S1418       S  0.18939700  0.43527537  0.67840440    -0.03200
C1419       C  0.19733043  0.42679793  0.66135051    -0.16600
C1420       C  0.21203363  0.43302624  0.65678120    -0.14600
H1421       H  0.23997262  0.45107886  0.65700528     0.20800
H1422       H  0.20068700  0.46006487  0.70129474     0.16800
H1423       H  0.22243253  0.48125582  0.71242489     0.19300
H1424       H  0.21890250  0.42912914  0.64652744     0.12700
C1425       C  0.31691930  0.20835460  0.55011068     0.16500
C1426       C  0.30457643  0.21093250  0.53903628    -0.32500
C1427       C  0.30503553  0.22513278  0.53007300     0.20900
C1428       C  0.31729116  0.23618552  0.53194519     0.03100
C1429       C  0.32963643  0.23357455  0.54295573    -0.22200
C1430       C  0.32910866  0.21946686  0.55200011     0.12300
S1431       S  0.31827712  0.19223040  0.56259549    -0.05900
C1432       C  0.33534036  0.20068323  0.57058107    -0.09300
C1433       C  0.33973743  0.21510925  0.56366113    -0.26000
S1434       S  0.31562672  0.25274884  0.52013778    -0.03200
C1435       C  0.29817561  0.24477114  0.51261292    -0.16600
C1436       C  0.29398870  0.23000943  0.51897728    -0.14600
H1437       H  0.29495285  0.20236980  0.53761924     0.20800
H1438       H  0.33912826  0.24225434  0.54454775     0.16800
H1439       H  0.34996041  0.22224777  0.56717224     0.19300
H1440       H  0.28339183  0.22327721  0.51574939     0.12700
C1441       C  0.46732382  0.22620140  0.69919188     0.16500
C1442       C  0.45663793  0.21360480  0.69623048    -0.32500
C1443       C  0.44628357  0.21513648  0.68311039     0.20900
C1444       C  0.44656373  0.22857392  0.67336888     0.03100
C1445       C  0.45725812  0.24113864  0.67630791    -0.22200
C1446       C  0.46759189  0.23961809  0.68941602     0.12300
S1447       S  0.48067086  0.22682875  0.71464591    -0.05900
C1448       C  0.48663999  0.24537805  0.70785002    -0.09300
C1449       C  0.47868212  0.25063945  0.69429231    -0.26000
S1450       S  0.43301979  0.22819586  0.65811914    -0.03200
C1451       C  0.42686957  0.20971092  0.66490301    -0.16600
C1452       C  0.43499358  0.20425386  0.67831367    -0.14600
H1453       H  0.45635589  0.20312631  0.70384259     0.20800
H1454       H  0.45747410  0.25165965  0.66874991     0.16800
H1455       H  0.48075290  0.26201571  0.68843136     0.19300
H1456       H  0.43278716  0.19296139  0.68426559     0.12700
C1457       C  0.20956948  0.08620311  0.18325181     0.16500
C1458       C  0.21241612  0.07473337  0.19515134    -0.32500
C1459       C  0.22672021  0.06594702  0.19426451     0.20900
C1460       C  0.23765831  0.06834417  0.18201552     0.03100
C1461       C  0.23476270  0.07976301  0.17005099    -0.22200
C1462       C  0.22050942  0.08865669  0.17101818     0.12300
S1463       S  0.19319097  0.09843319  0.18251065    -0.05900
C1464       C  0.20118878  0.10708506  0.16558572    -0.09300
C1465       C  0.21575008  0.10060227  0.16080877    -0.26000
S1466       S  0.25441304  0.05661554  0.18327650    -0.03200
C1467       C  0.24664284  0.04848173  0.20056510    -0.16600
C1468       C  0.23178686  0.05455339  0.20491815    -0.14600
H1469       H  0.20396237  0.07288163  0.20477291     0.20800
H1470       H  0.24331041  0.08175972  0.16054170     0.16800
H1471       H  0.22262530  0.10454152  0.15057884     0.19300
H1472       H  0.22510277  0.05092234  0.21539535     0.12700
C1473       C  0.32925700  0.94222644  0.27373053     0.16500
C1474       C  0.32703271  0.95347125  0.26147328    -0.32500
C1475       C  0.31247327  0.96186752  0.26111722     0.20900
C1476       C  0.30068680  0.95924709  0.27251143     0.03100
C1477       C  0.30293701  0.94803730  0.28481160    -0.22200
C1478       C  0.31747934  0.93958711  0.28512470     0.12300
S1479       S  0.34585357  0.93049376  0.27590833    -0.05900
C1480       C  0.33684042  0.92180057  0.29230583    -0.09300
C1481       C  0.32178984  0.92793025  0.29588480    -0.26000
S1482       S  0.28386848  0.97061574  0.26996731    -0.03200
C1483       C  0.29278037  0.97900038  0.25335182    -0.16600
C1484       C  0.30800451  0.97317734  0.25006718    -0.14600
H1485       H  0.33618686  0.95548550  0.25253898     0.20800
H1486       H  0.29372621  0.94591933  0.29366427     0.16800
H1487       H  0.31425017  0.92386582  0.30559359     0.19300
H1488       H  0.31541557  0.97703632  0.24017114     0.12700
C1489       C  0.44788235  0.80749605  0.28771649     0.16500
C1490       C  0.45856530  0.79480435  0.28505376    -0.32500
C1491       C  0.46709944  0.79474221  0.27060614     0.20900
C1492       C  0.46515689  0.80682744  0.25938756     0.03100
C1493       C  0.45451631  0.81951419  0.26207175    -0.22200
C1494       C  0.44592230  0.81952883  0.27645292     0.12300
S1495       S  0.43609807  0.80956471  0.30424488    -0.05900
C1496       C  0.42834041  0.82676008  0.29582320    -0.09300
C1497       C  0.43476684  0.83064813  0.28105003    -0.26000
S1498       S  0.47660520  0.80467634  0.24265804    -0.03200
C1499       C  0.48410515  0.78727266  0.25079745    -0.16600
C1500       C  0.47795772  0.78342135  0.26571955    -0.14600
H1501       H  0.46006816  0.78535671  0.29378872     0.20800
H1502       H  0.45293454  0.82890822  0.25329112     0.16800
H1503       H  0.43130089  0.84088850  0.27390590     0.19300
H1504       H  0.48133088  0.77299701  0.27264858     0.12700
C1505       C  0.32705519  0.81021092  0.40704686     0.16500
C1506       C  0.32455999  0.79859662  0.41887738    -0.32500
C1507       C  0.31041215  0.79961872  0.42786309     0.20900
C1508       C  0.29924136  0.81163657  0.42519840     0.03100
C1509       C  0.30172114  0.82321007  0.41334287    -0.22200
C1510       C  0.31587118  0.82220934  0.40437687     0.12300
S1511       S  0.34343663  0.81112253  0.39488345    -0.05900
C1512       C  0.33511974  0.82786249  0.38609059    -0.09300
C1513       C  0.32042893  0.83237702  0.39237391    -0.26000
S1514       S  0.28290772  0.81087535  0.43743942    -0.03200
C1515       C  0.29121304  0.79418198  0.44625487    -0.16600
C1516       C  0.30584878  0.78952504  0.43992569    -0.14600
H1517       H  0.33326023  0.78921284  0.42100329     0.20800
H1518       H  0.29302776  0.83260233  0.41122741     0.16800
H1519       H  0.31340836  0.84251922  0.38838350     0.19300
H1520       H  0.31279397  0.77933915  0.44396327     0.12700
C1521       C  0.21301395  0.94018502  0.18114703     0.16500
C1522       C  0.21549469  0.95091863  0.19377622    -0.32500
C1523       C  0.22893564  0.96093901  0.19293645     0.20900
C1524       C  0.23936616  0.96042069  0.18003235     0.03100
C1525       C  0.23680013  0.94978263  0.16732895    -0.22200
C1526       C  0.22345029  0.93963302  0.16825314     0.12300
S1527       S  0.19780475  0.92659230  0.18025555    -0.05900
C1528       C  0.20566505  0.91992551  0.16238983    -0.09300
C1529       C  0.21927129  0.92805558  0.15741333    -0.26000
S1530       S  0.25517696  0.97329245  0.18146372    -0.03200
C1531       C  0.24768258  0.97940618  0.19967076    -0.16600
C1532       C  0.23361632  0.97185308  0.20423009    -0.14600
H1533       H  0.20744500  0.95126848  0.20392513     0.20800
H1534       H  0.24498862  0.94925710  0.15730050     0.16800
H1535       H  0.22592353  0.92548596  0.14660227     0.19300
H1536       H  0.22724600  0.97410592  0.21528690     0.12700
C1537       C  0.30065659  0.06741273  0.27345224     0.16500
C1538       C  0.30293307  0.07850739  0.28581537    -0.32500
C1539       C  0.31744050  0.08696416  0.28611085     0.20900
C1540       C  0.32922906  0.08437517  0.27471073     0.03100
C1541       C  0.32702038  0.07316697  0.26243501    -0.22200
C1542       C  0.31243368  0.06484970  0.26202974     0.12300
S1543       S  0.28372332  0.05629380  0.27074481    -0.05900
C1544       C  0.29255237  0.04814584  0.25398698    -0.09300
C1545       C  0.30785023  0.05380330  0.25080899    -0.26000
S1546       S  0.34567721  0.09631406  0.27676318    -0.03200
C1547       C  0.33652563  0.10503807  0.29307244    -0.16600
C1548       C  0.32159885  0.09873319  0.29675097    -0.14600
H1549       H  0.29370073  0.08064244  0.29465722     0.20800
H1550       H  0.33614523  0.07122596  0.25343795     0.16800
H1551       H  0.31521662  0.05004511  0.24082890     0.19300
H1552       H  0.31397053  0.10282938  0.30638764     0.12700
C1553       C  0.44654054  0.21996329  0.28856013     0.16500
C1554       C  0.45784504  0.23212765  0.28617128    -0.32500
C1555       C  0.46728819  0.23133152  0.27233384     0.20900
C1556       C  0.46560646  0.21893660  0.26141732     0.03100
C1557       C  0.45439067  0.20673257  0.26386241    -0.22200
C1558       C  0.44490546  0.20756870  0.27764599     0.12300
S1559       S  0.43354965  0.21904029  0.30426846    -0.05900
C1560       C  0.42578864  0.20179637  0.29600615    -0.09300
C1561       C  0.43307460  0.19706049  0.28188986    -0.26000
S1562       S  0.47792649  0.22024753  0.24523893    -0.03200
C1563       C  0.48543617  0.23770741  0.25322634    -0.16600
C1564       C  0.47870555  0.24216159  0.26770607    -0.14600
H1565       H  0.45909306  0.24187558  0.29462410     0.20800
H1566       H  0.45299470  0.19709485  0.25529842     0.16800
H1567       H  0.42970885  0.18667248  0.27489918     0.19300
H1568       H  0.48188334  0.25280221  0.27439663     0.12700
C1569       C  0.31172064  0.23726306  0.42242871     0.16500
C1570       C  0.32357740  0.23450608  0.41088624    -0.32500
C1571       C  0.32240071  0.22050103  0.40171956     0.20900
C1572       C  0.30999395  0.20969566  0.40395020     0.03100
C1573       C  0.29813103  0.21244560  0.41551834    -0.22200
C1574       C  0.29929172  0.22647578  0.42468111     0.12300
S1575       S  0.31105310  0.25354517  0.43471261    -0.05900
C1576       C  0.29383933  0.24578057  0.44303249    -0.09300
C1577       C  0.28895973  0.23130295  0.43651249    -0.26000
S1578       S  0.31071662  0.19345380  0.39156642    -0.03200
C1579       C  0.32790975  0.20130431  0.38325145    -0.16600
C1580       C  0.33271892  0.21576307  0.38987369    -0.14600
H1581       H  0.33328156  0.24291959  0.40911643     0.20800
H1582       H  0.28842228  0.20403357  0.41728354     0.16800
H1583       H  0.27846677  0.22465861  0.44024822     0.19300
H1584       H  0.34317508  0.22249737  0.38623769     0.12700
C1585       C  0.59139812  0.21920372  0.29021304     0.16500
C1586       C  0.58092151  0.23186033  0.28675773    -0.32500
C1587       C  0.57194924  0.23089523  0.27262479     0.20900
C1588       C  0.57324702  0.21787589  0.26241342     0.03100
C1589       C  0.58364117  0.20514249  0.26594348    -0.22200
C1590       C  0.59269850  0.20614896  0.28004714     0.12300
S1591       S  0.60374515  0.21843476  0.30643740    -0.05900
C1592       C  0.61086432  0.20034911  0.29945788    -0.09300
C1593       C  0.60379109  0.19522381  0.28533990    -0.26000
S1594       S  0.56139264  0.21908857  0.24579690    -0.03200
C1595       C  0.55459824  0.23731857  0.25270768    -0.16600
C1596       C  0.56127106  0.24208012  0.26713061    -0.14600
H1597       H  0.57993478  0.24208749  0.29464886     0.20800
H1598       H  0.58473581  0.19498566  0.25797893     0.16800
H1599       H  0.60681732  0.18428541  0.27908789     0.19300
H1600       H  0.55842400  0.25312101  0.27330293     0.12700
C1601       C  0.74188336  0.21774572  0.42868521     0.16500
C1602       C  0.73806714  0.20508085  0.41835099    -0.32500
C1603       C  0.72367517  0.20613738  0.40973404     0.20900
C1604       C  0.71352659  0.21919534  0.41135838     0.03100
C1605       C  0.71729300  0.23180199  0.42175153    -0.22200
C1606       C  0.73169410  0.23077373  0.43031758     0.12300
S1607       S  0.75879438  0.21881657  0.44014107    -0.05900
C1608       C  0.75204218  0.23700308  0.44722792    -0.09300
C1609       C  0.73745995  0.24186358  0.44092539    -0.26000
S1610       S  0.69688144  0.21845560  0.39954524    -0.03200
C1611       C  0.70364507  0.20036485  0.39224426    -0.16600
C1612       C  0.71802156  0.19523301  0.39884642    -0.14600
H1613       H  0.74601032  0.19490453  0.41701016     0.20800
H1614       H  0.70939984  0.24202920  0.42301351     0.16800
H1615       H  0.73133917  0.25288148  0.44402226     0.19300
H1616       H  0.72420198  0.18429142  0.39563425     0.12700
C1617       C  0.31075256  0.56982018  0.20192539     0.16500
C1618       C  0.32320883  0.58059631  0.19888642    -0.32500
C1619       C  0.32411256  0.58723317  0.18354560     0.20900
C1620       C  0.31306305  0.58341442  0.17177145     0.03100
C1621       C  0.30053744  0.57269997  0.17483956    -0.22200
C1622       C  0.29967406  0.56599510  0.19016799     0.12300
S1623       S  0.30789001  0.56017186  0.21962490    -0.05900
C1624       C  0.29160189  0.55085066  0.21109918    -0.09300
C1625       C  0.28856402  0.55514276  0.19539912    -0.26000
S1626       S  0.31625593  0.59277811  0.15394630    -0.03200
C1627       C  0.33266599  0.60192906  0.16245027    -0.16600
C1628       C  0.33541132  0.59783218  0.17826749    -0.14600
H1629       H  0.33188493  0.58358414  0.20804090     0.20800
H1630       H  0.29190816  0.56965814  0.16566580     0.16800
H1631       H  0.27891324  0.55041330  0.18815320     0.19300
H1632       H  0.34505686  0.60243564  0.18559717     0.12700
C1633       C  0.44571323  0.70157094  0.18402473     0.16500
C1634       C  0.45690845  0.70421236  0.19620667    -0.32500
C1635       C  0.46579700  0.71843120  0.19561168     0.20900
C1636       C  0.46364325  0.72951827  0.18344423     0.03100
C1637       C  0.45242673  0.72688892  0.17128879    -0.22200
C1638       C  0.44355237  0.71267077  0.17187665     0.12300
S1639       S  0.43372656  0.68512023  0.18261642    -0.05900
C1640       C  0.42568298  0.69329713  0.16548021    -0.09300
C1641       C  0.43208256  0.70798419  0.16117402    -0.26000
S1642       S  0.47565558  0.74595817  0.18478643    -0.03200
C1643       C  0.48367893  0.73782112  0.20193434    -0.16600
C1644       C  0.47727337  0.72315161  0.20630725    -0.14600
H1645       H  0.45861621  0.69557977  0.20570611     0.20800
H1646       H  0.45070892  0.73552501  0.16179340     0.16800
H1647       H  0.42850089  0.71492891  0.15085327     0.19300
H1648       H  0.48085740  0.71629578  0.21669491     0.12700
C1649       C  0.57178929  0.29988398  0.18549949     0.16500
C1650       C  0.58167726  0.30426737  0.17268709    -0.32500
C1651       C  0.59114946  0.31800038  0.17452377     0.20900
C1652       C  0.59076806  0.32696925  0.18847574     0.03100
C1653       C  0.58089536  0.32258721  0.20127478    -0.22200
C1654       C  0.57143890  0.30886707  0.19944734     0.12300
S1655       S  0.55939783  0.28365968  0.18565778    -0.05900
C1656       C  0.55368159  0.28905921  0.20471398    -0.09300
C1657       C  0.56105146  0.30272186  0.21052596    -0.26000
S1658       S  0.60313199  0.34318351  0.18840731    -0.03200
C1659       C  0.60897242  0.33783482  0.16938491    -0.16600
C1660       C  0.60159874  0.32417765  0.16349906    -0.14600
H1661       H  0.58198322  0.29727436  0.16177449     0.20800
H1662       H  0.58060065  0.32957097  0.21218734     0.16800
H1663       H  0.55891148  0.30789214  0.22221340     0.19300
H1664       H  0.60377123  0.31900074  0.15181736     0.12700
C1665       C  0.71174310  0.44894155  0.19098649     0.16500
C1666       C  0.71629651  0.45887396  0.20370783    -0.32500
C1667       C  0.73097210  0.46696482  0.20238147     0.20900
C1668       C  0.74063766  0.46527727  0.18898899     0.03100
C1669       C  0.73603519  0.45545987  0.17626540    -0.22200
C1670       C  0.72142615  0.44736174  0.17760455     0.12300
S1671       S  0.69463006  0.43774888  0.19032651    -0.05900
C1672       C  0.70066075  0.43089680  0.17182836    -0.09300
C1673       C  0.71511544  0.43710598  0.16657435    -0.26000
S1674       S  0.75796044  0.47604539  0.18959078    -0.03200
C1675       C  0.75215966  0.48298202  0.20808611    -0.16600
C1676       C  0.73753268  0.47715746  0.21340970    -0.14600
H1677       H  0.70878415  0.46017060  0.21420605     0.20800
H1678       H  0.74356692  0.45412729  0.16578085     0.16800
H1679       H  0.72088956  0.43414067  0.15535279     0.19300
H1680       H  0.73192446  0.48034511  0.22465897     0.12700
C1681       C  0.80637511  0.21633450  0.05584641     0.16500
C1682       C  0.79329011  0.21936419  0.04578104    -0.32500
C1683       C  0.79343195  0.23361282  0.03690071     0.20900
C1684       C  0.80599015  0.24441953  0.03808994     0.03100
C1685       C  0.81901549  0.24144781  0.04824209    -0.22200
C1686       C  0.81892106  0.22714647  0.05703021     0.12300
S1687       S  0.80864248  0.19957006  0.06729277    -0.05900
C1688       C  0.82670706  0.20717732  0.07376748    -0.09300
C1689       C  0.83061536  0.22198145  0.06732185    -0.26000
S1690       S  0.80413856  0.26079295  0.02604353    -0.03200
C1691       C  0.78628339  0.25298212  0.01922724    -0.16600
C1692       C  0.78204342  0.23848229  0.02611168    -0.14600
H1693       H  0.78351840  0.21089729  0.04477644     0.20800
H1694       H  0.82887474  0.24982679  0.04911235     0.16800
H1695       H  0.84144942  0.22859967  0.06993375     0.19300
H1696       H  0.77135624  0.23174236  0.02318958     0.12700
C1697       C  0.71619760  0.33757005  0.05267915     0.16500
C1698       C  0.72843082  0.33465003  0.04159817    -0.32500
C1699       C  0.72774457  0.32031230  0.03292877     0.20900
C1700       C  0.71537380  0.30943078  0.03508139     0.03100
C1701       C  0.70307410  0.31242029  0.04604376    -0.22200
C1702       C  0.70383319  0.32668705  0.05479733     0.12300
S1703       S  0.71521309  0.35388385  0.06490144    -0.05900
C1704       C  0.69799922  0.34588816  0.07300930    -0.09300
C1705       C  0.69330961  0.33143017  0.06638234    -0.26000
S1706       S  0.71689993  0.29256849  0.02372555    -0.03200
C1707       C  0.73443837  0.30023350  0.01603489    -0.16600
C1708       C  0.73873027  0.31510692  0.02195588    -0.14600
H1709       H  0.73817786  0.34304924  0.03998947     0.20800
H1710       H  0.69347144  0.30389308  0.04784847     0.16800
H1711       H  0.68296138  0.32453871  0.07004805     0.19300
H1712       H  0.74938362  0.32167046  0.01854299     0.12700
C1713       C  0.71928182  0.30771841  0.92668939     0.16500
C1714       C  0.70737279  0.31123090  0.91543162    -0.32500
C1715       C  0.70908313  0.32529602  0.90642792     0.20900
C1716       C  0.72206893  0.33543398  0.90846829     0.03100
C1717       C  0.73399285  0.33192126  0.91972605    -0.22200
C1718       C  0.73226533  0.31786285  0.92875686     0.12300
S1719       S  0.71935502  0.29130543  0.93890042    -0.05900
C1720       C  0.73705590  0.29821019  0.94692040    -0.09300
C1721       C  0.74250858  0.31245554  0.94033560    -0.26000
S1722       S  0.72191650  0.35185909  0.89627228    -0.03200
C1723       C  0.70414328  0.34498540  0.88834575    -0.16600
C1724       C  0.69876701  0.33071700  0.89493589    -0.14600
H1725       H  0.69718951  0.30335358  0.91377536     0.20800
H1726       H  0.74416659  0.33980846  0.92139178     0.16800
H1727       H  0.75337038  0.31859682  0.94390247     0.19300
H1728       H  0.68791070  0.32452061  0.89147963     0.12700
C1729       C  0.59250851  0.31884841  0.78930000     0.16500
C1730       C  0.58156760  0.30633822  0.78698463    -0.32500
C1731       C  0.57195520  0.30690038  0.77325001     0.20900
C1732       C  0.57314485  0.31936386  0.76234583     0.03100
C1733       C  0.58407052  0.33185288  0.76466613    -0.22200
C1734       C  0.59371054  0.33126581  0.77835368     0.12300
S1735       S  0.60531910  0.32038032  0.80511302    -0.05900
C1736       C  0.61241673  0.33791155  0.79683183    -0.09300
C1737       C  0.60511715  0.34222747  0.78259378    -0.26000
S1738       S  0.56055955  0.31781632  0.74638271    -0.03200
C1739       C  0.55363224  0.30014561  0.75443385    -0.16600
C1740       C  0.56074498  0.29580571  0.76877158    -0.14600
H1741       H  0.58063426  0.29659235  0.79545797     0.20800
H1742       H  0.58506457  0.34155590  0.75614696     0.16800
H1743       H  0.60796692  0.35280676  0.77568433     0.19300
H1744       H  0.55796138  0.28507136  0.77547435     0.12700
C1745       C  0.71185077  0.45327279  0.77197768     0.16500
C1746       C  0.71563629  0.46314232  0.75895668    -0.32500
C1747       C  0.72903260  0.47317612  0.76039777     0.20900
C1748       C  0.73823097  0.47345032  0.77419478     0.03100
C1749       C  0.73439047  0.46363139  0.78725561    -0.22200
C1750       C  0.72103031  0.45353005  0.78578489     0.12300
S1751       S  0.69636363  0.43993288  0.77241913    -0.05900
C1752       C  0.70236156  0.43449975  0.79138639    -0.09300
C1753       C  0.71561366  0.44282534  0.79699081    -0.26000
S1754       S  0.75409433  0.48637616  0.77346366    -0.03200
C1755       C  0.74824183  0.49149542  0.75437066    -0.16600
C1756       C  0.73470685  0.48350151  0.74899205    -0.14600
H1757       H  0.70854224  0.46291252  0.74813938     0.20800
H1758       H  0.74157009  0.46375564  0.79802054     0.16800
H1759       H  0.72117003  0.44100141  0.80853278     0.19300
H1760       H  0.72931152  0.48513803  0.73734073     0.12700
C1761       C  0.82636098  0.22829285  0.91798908     0.16500
C1762       C  0.82308205  0.24099399  0.92843113    -0.32500
C1763       C  0.80788519  0.24143874  0.93553762     0.20900
C1764       C  0.79651452  0.22972936  0.93243452     0.03100
C1765       C  0.79980088  0.21704280  0.92202145    -0.22200
C1766       C  0.81496069  0.21662171  0.91489058     0.12300
S1767       S  0.84392837  0.22574187  0.90793391    -0.05900
C1768       C  0.83579496  0.20879411  0.89942119    -0.09300
C1769       C  0.82031379  0.20536145  0.90428118    -0.26000
S1770       S  0.77886914  0.23224763  0.94230310    -0.03200
C1771       C  0.78685269  0.24928187  0.95071025    -0.16600
C1772       C  0.80237727  0.25277885  0.94601710    -0.14600
H1773       H  0.83194167  0.25013294  0.93085428     0.20800
H1774       H  0.79092504  0.20792636  0.91956460     0.16800
H1775       H  0.81324713  0.19532986  0.90013101     0.19300
H1776       H  0.80929223  0.26291803  0.95017954     0.12700
C1777       C  0.07249652  0.24011043  0.78260238     0.16500
C1778       C  0.08356146  0.23709628  0.79483055    -0.32500
C1779       C  0.09303007  0.22327965  0.79354721     0.20900
C1780       C  0.09153626  0.21290540  0.78069132     0.03100
C1781       C  0.08044351  0.21589839  0.76847214    -0.22200
C1782       C  0.07099793  0.22973873  0.76973839     0.12300
S1783       S  0.06005024  0.25630550  0.78187832    -0.05900
C1784       C  0.05276782  0.24907423  0.76401590    -0.09300
C1785       C  0.05965951  0.23480766  0.75902054    -0.26000
S1786       S  0.10423961  0.19690171  0.78127970    -0.03200
C1787       C  0.11168774  0.20426152  0.79904149    -0.16600
C1788       C  0.10455993  0.21838060  0.80413370    -0.14600
H1789       H  0.08478490  0.24519149  0.80485236     0.20800
H1790       H  0.07928392  0.20785305  0.75840820     0.16800
H1791       H  0.05660144  0.22853667  0.74812212     0.19300
H1792       H  0.10768831  0.22480332  0.81492043     0.12700
C1793       C  0.08842968  0.31349791  0.67511351     0.16500
C1794       C  0.07805187  0.30108442  0.67947916    -0.32500
C1795       C  0.06929634  0.30292914  0.69365657     0.20900
C1796       C  0.07078020  0.31649406  0.70310680     0.03100
C1797       C  0.08113067  0.32894090  0.69870710    -0.22200
C1798       C  0.08987743  0.32710510  0.68450474     0.12300
S1799       S  0.10033202  0.31340991  0.65853936    -0.05900
C1800       C  0.10737255  0.33192170  0.66431429    -0.09300
C1801       C  0.10068009  0.33776578  0.67832650    -0.26000
S1802       S  0.05908200  0.31637187  0.71986694    -0.03200
C1803       C  0.05206154  0.29788604  0.71399393    -0.16600
C1804       C  0.05858112  0.29221269  0.69984279    -0.14600
H1805       H  0.07689015  0.29044547  0.67218453     0.20800
H1806       H  0.08234176  0.33955106  0.70603273     0.16800
H1807       H  0.10372819  0.34906122  0.68387930     0.19300
H1808       H  0.05557609  0.28087785  0.69432137     0.12700
C1809       C  0.96684440  0.22701774  0.77421854     0.16500
C1810       C  0.95739146  0.21377009  0.77820521    -0.32500
C1811       C  0.94865571  0.21449480  0.79248248     0.20900
C1812       C  0.94935159  0.22776348  0.80242613     0.03100
C1813       C  0.95890265  0.24099504  0.79849075    -0.22200
C1814       C  0.96758082  0.24030699  0.78414349     0.12300
S1815       S  0.97820902  0.22846141  0.75735684    -0.05900
C1816       C  0.98412038  0.24715401  0.76374753    -0.09300
C1817       C  0.97749410  0.25194539  0.77818050    -0.26000
S1818       S  0.93745578  0.22643448  0.81896805    -0.03200
C1819       C  0.93135834  0.20786444  0.81230858    -0.16600
C1820       C  0.93842499  0.20301188  0.79812014    -0.14600
H1821       H  0.95676343  0.20341031  0.77044960     0.20800
H1822       H  0.95943402  0.25140385  0.80618518     0.16800
H1823       H  0.97991817  0.26324073  0.78405607     0.19300
H1824       H  0.93598810  0.19183563  0.79204089     0.12700
C1825       C  0.96238887  0.31479689  0.70510878     0.16500
C1826       C  0.95125706  0.32684572  0.70168792    -0.32500
C1827       C  0.94133008  0.32465797  0.68838410     0.20900
C1828       C  0.94236325  0.31109033  0.67888138     0.03100
C1829       C  0.95346519  0.29897030  0.68234890    -0.22200
C1830       C  0.96345346  0.30118894  0.69565331     0.12300
S1831       S  0.97551065  0.31526910  0.72070576    -0.05900
C1832       C  0.98252677  0.29690238  0.71446939    -0.09300
C1833       C  0.97504533  0.29085924  0.70095865    -0.26000
S1834       S  0.92938271  0.31095477  0.66310544    -0.03200
C1835       C  0.92254297  0.32939377  0.66942665    -0.16600
C1836       C  0.92995773  0.33515513  0.68306789    -0.14600
H1837       H  0.95041583  0.33747963  0.70902305     0.20800
H1838       H  0.95434048  0.28836451  0.67498282     0.16800
H1839       H  0.97784939  0.27949318  0.69540547     0.19300
H1840       H  0.92734468  0.34650530  0.68872925     0.12700
C1841       C  0.81785995  0.29737678  0.53645880     0.16500
C1842       C  0.82962575  0.30065499  0.54788200    -0.32500
C1843       C  0.82910896  0.31559729  0.55543628     0.20900
C1844       C  0.81743653  0.32685101  0.55180903     0.03100
C1845       C  0.80566491  0.32359727  0.54030707    -0.22200
C1846       C  0.80614626  0.30858301  0.53277498     0.12300
S1847       S  0.81649071  0.27990532  0.52603286    -0.05900
C1848       C  0.79994055  0.28772566  0.51655530    -0.09300
C1849       C  0.79575632  0.30307486  0.52135808    -0.26000
S1850       S  0.81871171  0.34407745  0.56274788    -0.03200
C1851       C  0.83509301  0.33592657  0.57233204    -0.16600
C1852       C  0.83930537  0.32075880  0.56710467    -0.14600
H1853       H  0.83873780  0.29189517  0.55082889     0.20800
H1854       H  0.79648069  0.33230947  0.53745328     0.16800
H1855       H  0.78575571  0.30987364  0.51665451     0.19300
H1856       H  0.84907762  0.31366042  0.57182154     0.12700
C1857       C  0.81413569  0.44657834  0.67417268     0.16500
C1858       C  0.80245970  0.45846093  0.67592532    -0.32500
C1859       C  0.80378889  0.46873893  0.68906038     0.20900
C1860       C  0.81617667  0.46729491  0.70001590     0.03100
C1861       C  0.82787921  0.45535477  0.69827515    -0.22200
C1862       C  0.82654637  0.44504910  0.68509257     0.12300
S1863       S  0.81464949  0.43312959  0.65890592    -0.05900
C1864       C  0.83183760  0.42532199  0.66721755    -0.09300
C1865       C  0.83675765  0.43278910  0.68118880    -0.26000
S1866       S  0.81548507  0.48095413  0.71519974    -0.03200
C1867       C  0.79828369  0.48858077  0.70667725    -0.16600
C1868       C  0.79351351  0.48092510  0.69279894    -0.14600
H1869       H  0.79276738  0.45965503  0.66740850     0.20800
H1870       H  0.83757225  0.45415948  0.70678821     0.16800
H1871       H  0.84729214  0.42957190  0.68801760     0.19300
H1872       H  0.78298711  0.48400975  0.68588354     0.12700
C1873       C  0.23324803  0.79103900  0.03136781     0.16500
C1874       C  0.22127077  0.79293132  0.04296423    -0.32500
C1875       C  0.22150702  0.80697958  0.05213879     0.20900
C1876       C  0.23311155  0.81863397  0.04983774     0.03100
C1877       C  0.24507867  0.81674073  0.03824319    -0.22200
C1878       C  0.24489252  0.80267203  0.02911597     0.12300
S1879       S  0.23509503  0.77485015  0.01908870    -0.05900
C1880       C  0.25181628  0.78378629  0.01090535    -0.09300
C1881       C  0.25561378  0.79856852  0.01738953    -0.26000
S1882       S  0.23139870  0.83475844  0.06222015    -0.03200
C1883       C  0.21487344  0.82572442  0.07065111    -0.16600
C1884       C  0.21098350  0.81098060  0.06407022    -0.14600
H1885       H  0.21220485  0.78383562  0.04478840     0.20800
H1886       H  0.25418051  0.82580866  0.03646408     0.16800
H1887       H  0.26566510  0.80590643  0.01373178     0.19300
H1888       H  0.20106743  0.80352583  0.06783966     0.12700
C1889       C  0.32097884  0.72673230  0.02876807     0.16500
C1890       C  0.33311503  0.72347621  0.03986224    -0.32500
C1891       C  0.33166278  0.70955290  0.04910185     0.20900
C1892       C  0.31877522  0.69923823  0.04732059     0.03100
C1893       C  0.30663208  0.70247813  0.03618680    -0.22200
C1894       C  0.30803257  0.71647855  0.02700087     0.12300
S1895       S  0.32042511  0.74316883  0.01667751    -0.05900
C1896       C  0.30251035  0.73622896  0.00914779    -0.09300
C1897       C  0.29737479  0.72186356  0.01572473    -0.26000
S1898       S  0.31919996  0.68307274  0.05982609    -0.03200
C1899       C  0.33685754  0.69039097  0.06764060    -0.16600
C1900       C  0.34206905  0.70454948  0.06072678    -0.14600
H1901       H  0.34317790  0.73151347  0.04132455     0.20800
H1902       H  0.29649740  0.69451689  0.03483215     0.16800
H1903       H  0.28639333  0.71576517  0.01252585     0.19300
H1904       H  0.35283158  0.71094063  0.06407597     0.12700
C1905       C  0.33718385  0.71975649  0.90088781     0.16500
C1906       C  0.33498415  0.73198353  0.91221662    -0.32500
C1907       C  0.32062124  0.73197761  0.92097896     0.20900
C1908       C  0.30900273  0.72037800  0.91843480     0.03100
C1909       C  0.31115424  0.70828547  0.90708127    -0.22200
C1910       C  0.32550273  0.70821233  0.89845734     0.12300
S1911       S  0.35374539  0.71743039  0.88911525    -0.05900
C1912       C  0.34477568  0.70073449  0.88088091    -0.09300
C1913       C  0.32978031  0.69727439  0.88705446    -0.26000
S1914       S  0.29259869  0.72204058  0.93034972    -0.03200
C1915       C  0.30139494  0.73852175  0.93904477    -0.16600
C1916       C  0.31627709  0.74255234  0.93281731    -0.14600
H1917       H  0.34409261  0.74098832  0.91419866     0.20800
H1918       H  0.30208508  0.69922120  0.90516383     0.16800
H1919       H  0.32230011  0.68736794  0.88334190     0.19300
H1920       H  0.32356574  0.75247781  0.93685678     0.12700
C1921       C  0.33138201  0.58541801  0.76997660     0.16500
C1922       C  0.32855027  0.57423319  0.75781459    -0.32500
C1923       C  0.31361002  0.56658053  0.75762835     0.20900
C1924       C  0.30204337  0.56983025  0.76909221     0.03100
C1925       C  0.30489182  0.58099900  0.78127467    -0.22200
C1926       C  0.31980727  0.58872230  0.78141216     0.12300
S1927       S  0.34855678  0.59625368  0.77201638    -0.05900
C1928       C  0.34005123  0.60546940  0.78840669    -0.09300
C1929       C  0.32472748  0.60019141  0.79207110    -0.26000
S1930       S  0.28471114  0.55925984  0.76679600    -0.03200
C1931       C  0.29311242  0.55039638  0.75017853    -0.16600
C1932       C  0.30854155  0.55545867  0.74670004    -0.14600
H1933       H  0.33753615  0.57170007  0.74884347     0.20800
H1934       H  0.29586098  0.58361794  0.79017766     0.16800
H1935       H  0.31746181  0.60466588  0.80180959     0.19300
H1936       H  0.31567764  0.55119164  0.73676894     0.12700
C1937       C  0.44989903  0.70663055  0.76378464     0.16500
C1938       C  0.46017364  0.71001922  0.75093991    -0.32500
C1939       C  0.46836702  0.72469680  0.75119343     0.20900
C1940       C  0.46636405  0.73548015  0.76365613     0.03100
C1941       C  0.45608426  0.73211887  0.77641682    -0.22200
C1942       C  0.44796423  0.71747510  0.77619059     0.12300
S1943       S  0.43887819  0.68952998  0.76585897    -0.05900
C1944       C  0.43162439  0.69713256  0.78362250    -0.09300
C1945       C  0.43754009  0.71210288  0.78759161    -0.26000
S1946       S  0.47752263  0.75244736  0.76206053    -0.03200
C1947       C  0.48508969  0.74500677  0.74441053    -0.16600
C1948       C  0.47910215  0.73014594  0.74001543    -0.14600
H1949       H  0.46176688  0.70157354  0.74123934     0.20800
H1950       H  0.45455551  0.74052726  0.78616678     0.16800
H1951       H  0.43434529  0.71880729  0.79821141     0.19300
H1952       H  0.48260257  0.72359392  0.72939583     0.12700
C1953       C  0.21754438  0.80569470  0.90258070     0.16500
C1954       C  0.22079785  0.79277143  0.91279717    -0.32500
C1955       C  0.23420636  0.79398575  0.92284208     0.20900
C1956       C  0.24392334  0.80745658  0.92270947     0.03100
C1957       C  0.24064628  0.82036997  0.91254075    -0.22200
C1958       C  0.22727134  0.81914922  0.90250421     0.12300
S1959       S  0.20199267  0.80654633  0.88934835    -0.05900
C1960       C  0.20871248  0.82521843  0.88362397    -0.09300
C1961       C  0.22226602  0.83038710  0.89168205    -0.26000
S1962       S  0.25968414  0.80660726  0.93563460    -0.03200
C1963       C  0.25312818  0.78790463  0.94137145    -0.16600
C1964       C  0.23942286  0.78270068  0.93357170    -0.14600
H1965       H  0.21325511  0.78222811  0.91287323     0.20800
H1966       H  0.24823313  0.83088444  0.91240817     0.16800
H1967       H  0.22823234  0.84172290  0.88970544     0.19300
H1968       H  0.23364161  0.77127102  0.93558754     0.12700
C1969       C  0.22425689  0.07610930  0.76332006     0.16500
C1970       C  0.21218195  0.08736252  0.76621464    -0.32500
C1971       C  0.21307536  0.09616489  0.78041800     0.20900
C1972       C  0.22542499  0.09389596  0.79127690     0.03100
C1973       C  0.23751772  0.08262944  0.78838201    -0.22200
C1974       C  0.23662993  0.07381729  0.77415922     0.12300
S1975       S  0.22529535  0.06429180  0.74677367    -0.05900
C1976       C  0.24260256  0.05615949  0.75451662    -0.09300
C1977       C  0.24724104  0.06235798  0.76915520    -0.26000
S1978       S  0.22434739  0.10584122  0.80776208    -0.03200
C1979       C  0.20706416  0.11396423  0.79991953    -0.16600
C1980       C  0.20249398  0.10765785  0.78531007    -0.14600
H1981       H  0.20252216  0.08918858  0.75775912     0.20800
H1982       H  0.24719281  0.08082941  0.79682236     0.16800
H1983       H  0.25779119  0.05869665  0.77575482     0.19300
H1984       H  0.19203251  0.11128700  0.77856522     0.12700
C1985       C  0.32920476  0.09379440  0.68729054     0.16500
C1986       C  0.32645991  0.08235205  0.69925573    -0.32500
C1987       C  0.31160659  0.07448643  0.69923608     0.20900
C1988       C  0.30000986  0.07790700  0.68785562     0.03100
C1989       C  0.30273907  0.08935331  0.67595250    -0.22200
C1990       C  0.31758992  0.09713281  0.67591641     0.12300
S1991       S  0.34638774  0.10467964  0.68516269    -0.05900
C1992       C  0.33782405  0.11374128  0.66872378    -0.09300
C1993       C  0.32247259  0.10851132  0.66521872    -0.26000
S1994       S  0.28290266  0.06693201  0.68962712    -0.03200
C1995       C  0.29143768  0.05753003  0.70584570    -0.16600
C1996       C  0.30671521  0.06281303  0.70967794    -0.14600
H1997       H  0.33551603  0.07964969  0.70813088     0.20800
H1998       H  0.29371013  0.09200492  0.66703057     0.16800
H1999       H  0.31516006  0.11288486  0.65545632     0.19300
H2000       H  0.31392556  0.05820697  0.71941631     0.12700
C2001       C  0.22886214  0.94555357  0.78853241     0.16500
C2002       C  0.23994147  0.95799249  0.78641035    -0.32500
C2003       C  0.23858238  0.96732831  0.77252103     0.20900
C2004       C  0.22666940  0.96447569  0.76131886     0.03100
C2005       C  0.21560696  0.95208543  0.76345606    -0.22200
C2006       C  0.21702113  0.94271543  0.77726530     0.12300
S2007       S  0.22852450  0.93268401  0.80441174    -0.05900
C2008       C  0.21226434  0.92339480  0.79572456    -0.09300
C2009       C  0.20748576  0.93004865  0.78131350    -0.26000
S2010       S  0.22710332  0.97693088  0.74518408    -0.03200
C2011       C  0.24362692  0.98602761  0.75349254    -0.16600
C2012       C  0.24837843  0.97972684  0.76808806    -0.14600
H2013       H  0.24927512  0.96021782  0.79513046     0.20800
H2014       H  0.20635249  0.94977282  0.75466928     0.16800
H2015       H  0.19758439  0.92584250  0.77408234     0.19300
H2016       H  0.25854827  0.98387080  0.77498433     0.12700
C2017       C  0.32947469  0.95171996  0.68450417     0.16500
C2018       C  0.32676575  0.96275944  0.69684500    -0.32500
C2019       C  0.31208076  0.97094641  0.69691404     0.20900
C2020       C  0.30063193  0.96828194  0.68519395     0.03100
C2021       C  0.30333104  0.95725087  0.67288419    -0.22200
C2022       C  0.31798824  0.94906622  0.67283290     0.12300
S2023       S  0.34644280  0.94049025  0.68230529    -0.05900
C2024       C  0.33795746  0.93212134  0.66548329    -0.09300
C2025       C  0.32278003  0.93786174  0.66189124    -0.26000
S2026       S  0.28365490  0.97943368  0.68726490    -0.03200
C2027       C  0.29200783  0.98778714  0.70414352    -0.16600
C2028       C  0.30717404  0.98213128  0.70788227    -0.14600
H2029       H  0.33570476  0.96486198  0.70599977     0.20800
H2030       H  0.29438611  0.95513841  0.66373380     0.16800
H2031       H  0.31554060  0.93401190  0.65186026     0.19300
H2032       H  0.31424965  0.98604859  0.71800874     0.12700
C2033       C  0.31316697  0.83392843  0.55058327     0.16500
C2034       C  0.30045825  0.83038702  0.54024565    -0.32500
C2035       C  0.30108008  0.81579173  0.53198596     0.20900
C2036       C  0.31379274  0.80524043  0.53388691     0.03100
C2037       C  0.32650911  0.80882077  0.54412867    -0.22200
C2038       C  0.32587217  0.82336626  0.55239138     0.12300
S2039       S  0.31452893  0.85075534  0.56207281    -0.05900
C2040       C  0.33240920  0.84342702  0.56933818    -0.09300
C2041       C  0.33697864  0.82878007  0.56305770    -0.26000
S2042       S  0.31236603  0.78815036  0.52290051    -0.03200
C2043       C  0.29445439  0.79528232  0.51560396    -0.16600
C2044       C  0.28988641  0.81011424  0.52147893    -0.14600
H2045       H  0.29049144  0.83857528  0.53879143     0.20800
H2046       H  0.33642945  0.80058816  0.54565716     0.16800
H2047       H  0.34769959  0.82224394  0.56631219     0.19300
H2048       H  0.27903239  0.81642099  0.51818019     0.12700
C2049       C  0.44905045  0.81837035  0.66149480     0.16500
C2050       C  0.45958950  0.80546693  0.66368774    -0.32500
C2051       C  0.46847792  0.80505426  0.67791220     0.20900
C2052       C  0.46696287  0.81697270  0.68937285     0.03100
C2053       C  0.45648958  0.82985595  0.68715551    -0.22200
C2054       C  0.44759601  0.83024671  0.67299336     0.12300
S2055       S  0.43699830  0.82103148  0.64523832    -0.05900
C2056       C  0.42996191  0.83833272  0.65407421    -0.09300
C2057       C  0.43669852  0.84172934  0.66880684    -0.26000
S2058       S  0.47865593  0.81437106  0.70582471    -0.03200
C2059       C  0.48568240  0.79698288  0.69725857    -0.16600
C2060       C  0.47926046  0.79349584  0.68237677    -0.14600
H2061       H  0.46074816  0.79615046  0.65476519     0.20800
H2062       H  0.45527822  0.83913752  0.69610965     0.16800
H2063       H  0.43372508  0.85196753  0.67616480     0.19300
H2064       H  0.48231607  0.78311681  0.67523792     0.12700
C2065       C  0.81472380  0.07541794  0.19928616     0.16500
C2066       C  0.82764212  0.08557935  0.19576294    -0.32500
C2067       C  0.82656632  0.09503029  0.18190891     0.20900
C2068       C  0.81326154  0.09434190  0.17200853     0.03100
C2069       C  0.80038260  0.08420579  0.17552069    -0.22200
C2070       C  0.80144275  0.07480657  0.18935005     0.12300
S2071       S  0.81365422  0.06287737  0.21541745    -0.05900
C2072       C  0.79515686  0.05672809  0.20860275    -0.09300
C2073       C  0.79019006  0.06414102  0.19463366    -0.26000
S2074       S  0.81414234  0.10675226  0.15585409    -0.03200
C2075       C  0.83261774  0.11311129  0.16249625    -0.16600
C2076       C  0.83774661  0.10579951  0.17650310    -0.14600
H2077       H  0.83804293  0.08610619  0.20346828     0.20800
H2078       H  0.78998389  0.08367108  0.16781050     0.16800
H2079       H  0.77899887  0.06172552  0.18855334     0.19300
H2080       H  0.84897170  0.10828295  0.18247693     0.12700
C2081       C  0.72129040  0.07014956  0.26502539     0.16500
C2082       C  0.70803386  0.07968592  0.26888222    -0.32500
C2083       C  0.70849151  0.08808193  0.28337843     0.20900
C2084       C  0.72152400  0.08699699  0.29360414     0.03100
C2085       C  0.73473834  0.07739849  0.28979245    -0.22200
C2086       C  0.73430207  0.06904730  0.27528258     0.12300
S2087       S  0.72314611  0.05916372  0.24793956    -0.05900
C2088       C  0.74162878  0.05299182  0.25473084    -0.09300
C2089       C  0.74601663  0.05919049  0.26944652    -0.26000
S2090       S  0.71996107  0.09843205  0.31039912    -0.03200
C2091       C  0.70157261  0.10484834  0.30354707    -0.16600
C2092       C  0.69695825  0.09826561  0.28905131    -0.14600
H2093       H  0.69787349  0.08061647  0.26088819     0.20800
H2094       H  0.74495735  0.07657361  0.29772359     0.16800
H2095       H  0.75715845  0.05659862  0.27556007     0.19300
H2096       H  0.68592337  0.10098921  0.28282001     0.12700
C2097       C  0.72399953  0.96436816  0.25732222     0.16500
C2098       C  0.71171283  0.95307774  0.25903138    -0.32500
C2099       C  0.71162874  0.94374907  0.27295812     0.20900
C2100       C  0.72324539  0.94558354  0.28466480     0.03100
C2101       C  0.73554420  0.95686251  0.28295320    -0.22200
C2102       C  0.73563728  0.96617984  0.26901710     0.12300
S2103       S  0.72617122  0.97684331  0.24133389    -0.05900
C2104       C  0.74298286  0.98455668  0.25046092    -0.09300
C2105       C  0.74659033  0.97776206  0.26514574    -0.26000
S2106       S  0.72101465  0.93316619  0.30067734    -0.03200
C2107       C  0.70423071  0.92539060  0.29152175    -0.16600
C2108       C  0.70067703  0.93215901  0.27681220    -0.14600
H2109       H  0.70262488  0.95163658  0.24991994     0.20800
H2110       H  0.74462556  0.95831014  0.29207138     0.16800
H2111       H  0.75664641  0.98113124  0.27259016     0.19300
H2112       H  0.69064178  0.92882738  0.26933625     0.12700
C2113       C  0.59017861  0.82287641  0.26939815     0.16500
C2114       C  0.57955289  0.81911024  0.25702798    -0.32500
C2115       C  0.57062580  0.80499087  0.25850237     0.20900
C2116       C  0.57216101  0.79502950  0.27168323     0.03100
C2117       C  0.58278618  0.79881480  0.28409277    -0.22200
C2118       C  0.59172609  0.81296532  0.28261190     0.12300
S2119       S  0.60219657  0.83937030  0.26972893    -0.05900
C2120       C  0.60943442  0.83288760  0.28788685    -0.09300
C2121       C  0.60274489  0.81867287  0.29330995    -0.26000
S2122       S  0.56020035  0.77844829  0.27113002    -0.03200
C2123       C  0.55307367  0.78506773  0.25295570    -0.16600
C2124       C  0.55970257  0.79934219  0.24771952    -0.14600
H2125       H  0.57832568  0.82680926  0.24671416     0.20800
H2126       H  0.58404272  0.79109692  0.29438920     0.16800
H2127       H  0.60585026  0.81273290  0.30436717     0.19300
H2128       H  0.55666064  0.80529684  0.23664125     0.12700
C2129       C  0.73041233  0.82557316  0.42770791     0.16500
C2130       C  0.72650331  0.83742139  0.41656984    -0.32500
C2131       C  0.71307744  0.83482075  0.40690810     0.20900
C2132       C  0.70376623  0.82115053  0.40836458     0.03100
C2133       C  0.70757663  0.80934166  0.41964925    -0.22200
C2134       C  0.72116417  0.81185224  0.42919116     0.12300
S2135       S  0.74679222  0.82612198  0.43984254    -0.05900
C2136       C  0.74125566  0.80758072  0.44691187    -0.09300
C2137       C  0.72729564  0.80148965  0.44029860    -0.26000
S2138       S  0.68828945  0.82010038  0.39506161    -0.03200
C2139       C  0.69459761  0.83819465  0.38738715    -0.16600
C2140       C  0.70785712  0.84464703  0.39495365    -0.14600
H2141       H  0.73382494  0.84805207  0.41524050     0.20800
H2142       H  0.70047852  0.79852987  0.42070856     0.16800
H2143       H  0.72215585  0.78992079  0.44314837     0.19300
H2144       H  0.71361210  0.85580998  0.39173324     0.12700
C2145       C  0.81629923  0.97049548  0.19498151     0.16500
C2146       C  0.82929980  0.96056607  0.19124022    -0.32500
C2147       C  0.82845056  0.95169243  0.17704691     0.20900
C2148       C  0.81530110  0.95272355  0.16696591     0.03100
C2149       C  0.80233772  0.96271662  0.17065799    -0.22200
C2150       C  0.80315212  0.97152135  0.18489086     0.12300
S2151       S  0.81488026  0.98199101  0.21178314    -0.05900
C2152       C  0.79638233  0.98825532  0.20512021    -0.09300
C2153       C  0.79168618  0.98172919  0.19063443    -0.26000
S2154       S  0.81640028  0.94069505  0.15053748    -0.03200
C2155       C  0.83472460  0.93406785  0.15739063    -0.16600
C2156       C  0.83966758  0.94104272  0.17158821    -0.14600
H2157       H  0.83955655  0.95967045  0.19912739     0.20800
H2158       H  0.79200187  0.96347858  0.16285803     0.16800
H2159       H  0.78045758  0.98427659  0.18465015     0.19300
H2160       H  0.85072910  0.93828442  0.17776651     0.12700
C2161       C  0.07326627  0.72595031  0.25648560     0.16500
C2162       C  0.08417283  0.71355777  0.25984206    -0.32500
C2163       C  0.09366397  0.71501832  0.27365328     0.20900
C2164       C  0.09231110  0.72819335  0.28365296     0.03100
C2165       C  0.08144756  0.74054272  0.28030389    -0.22200
C2166       C  0.07200543  0.73910083  0.26652441     0.12300
S2167       S  0.06062088  0.72657656  0.24037478    -0.05900
C2168       C  0.05359603  0.74475701  0.24727852    -0.09300
C2169       C  0.06078214  0.74989436  0.26132317    -0.26000
S2170       S  0.10479868  0.72781187  0.29977690    -0.03200
C2171       C  0.11206042  0.70969265  0.29304416    -0.16600
C2172       C  0.10501352  0.70433203  0.27897961    -0.14600
H2173       H  0.08522128  0.70327670  0.25205483     0.20800
H2174       H  0.08040693  0.75082681  0.28809084     0.16800
H2175       H  0.05792580  0.76095196  0.26744400     0.19300
H2176       H  0.10801585  0.69326496  0.27296200     0.12700
C2177       C  0.07273205  0.81309030  0.19091672     0.16500
C2178       C  0.08450711  0.82462720  0.18796484    -0.32500
C2179       C  0.09480603  0.82206245  0.17499668     0.20900
C2180       C  0.09338696  0.80870244  0.16525479     0.03100
C2181       C  0.08147742  0.79723163  0.16809523    -0.22200
C2182       C  0.07125943  0.79972269  0.18118052     0.12300
S2183       S  0.05965861  0.81361199  0.20657930    -0.05900
C2184       C  0.05214802  0.79558040  0.20000789    -0.09300
C2185       C  0.05937415  0.78965952  0.18629234    -0.26000
S2186       S  0.10742661  0.80760790  0.15044205    -0.03200
C2187       C  0.11532401  0.82530222  0.15753938    -0.16600
C2188       C  0.10731815  0.83164089  0.17060351    -0.14600
H2189       H  0.08578845  0.83501556  0.19563960     0.20800
H2190       H  0.08040673  0.78668480  0.16061537     0.16800
H2191       H  0.05637226  0.77839135  0.18060568     0.19300
H2192       H  0.11057766  0.84258128  0.17676640     0.12700
C2193       C  0.96151127  0.81608540  0.19660329     0.16500
C2194       C  0.95083701  0.82885425  0.19406880    -0.32500
C2195       C  0.94094929  0.82818841  0.18050026     0.20900
C2196       C  0.94155074  0.81529635  0.17006784     0.03100
C2197       C  0.95211501  0.80250045  0.17266512    -0.22200
C2198       C  0.96213047  0.80325715  0.18609197     0.12300
S2199       S  0.97489080  0.81483400  0.21200945    -0.05900
C2200       C  0.98154008  0.79693436  0.20408316    -0.09300
C2201       C  0.97356207  0.79221929  0.19032746    -0.26000
S2202       S  0.92887038  0.81679932  0.15417439    -0.03200
C2203       C  0.92268121  0.83508078  0.16151782    -0.16600
C2204       C  0.93010048  0.83960425  0.17567306    -0.14600
H2205       H  0.95042264  0.83893931  0.20216889     0.20800
H2206       H  0.95266947  0.79251350  0.16445112     0.16800
H2207       H  0.97608961  0.78138143  0.18369256     0.19300
H2208       H  0.92782245  0.85066826  0.18200562     0.12700
C2209       C  0.96335435  0.72784087  0.25874785     0.16500
C2210       C  0.95184923  0.71602043  0.26172039    -0.32500
C2211       C  0.94235602  0.71771049  0.27543359     0.20900
C2212       C  0.94421418  0.73057964  0.28574642     0.03100
C2213       C  0.95580893  0.74234604  0.28283914    -0.22200
C2214       C  0.96529559  0.74066477  0.26911020     0.12300
S2215       S  0.97574588  0.72816979  0.24254642    -0.05900
C2216       C  0.98366038  0.74576484  0.24982077    -0.09300
C2217       C  0.97699136  0.75098489  0.26407175    -0.26000
S2218       S  0.93119578  0.73066377  0.30147247    -0.03200
C2219       C  0.92318549  0.71313913  0.29409225    -0.16600
C2220       C  0.93036396  0.70761772  0.28020051    -0.14600
H2221       H  0.95026465  0.70602436  0.25362280     0.20800
H2222       H  0.95726574  0.75244059  0.29083480     0.16800
H2223       H  0.98036213  0.76184944  0.27028975     0.19300
H2224       H  0.92685415  0.69693497  0.27375623     0.12700
C2225       C  0.81822227  0.59307295  0.28995968     0.16500
C2226       C  0.80629837  0.58166874  0.28699406    -0.32500
C2227       C  0.80812719  0.57185315  0.27353335     0.20900
C2228       C  0.82133040  0.57316890  0.26354721     0.03100
C2229       C  0.83336075  0.58448052  0.26661508    -0.22200
C2230       C  0.83143306  0.59444693  0.27999312     0.12300
S2231       S  0.81773798  0.60661911  0.30519091    -0.05900
C2232       C  0.83546620  0.61439515  0.29802487    -0.09300
C2233       C  0.84143674  0.60662958  0.28460969    -0.26000
S2234       S  0.82106595  0.56037560  0.24760969    -0.03200
C2235       C  0.80292229  0.55327398  0.25444234    -0.16600
C2236       C  0.79755102  0.56043747  0.26840071    -0.14600
H2237       H  0.79589766  0.58069142  0.29467688     0.20800
H2238       H  0.84361390  0.58565592  0.25876642     0.16800
H2239       H  0.85228497  0.60993179  0.27832932     0.19300
H2240       H  0.78641800  0.55755455  0.27440061     0.12700
C2241       C  0.80824146  0.72261038  0.40349502     0.16500
C2242       C  0.79678642  0.72521495  0.41548182    -0.32500
C2243       C  0.79736833  0.73983509  0.42372365     0.20900
C2244       C  0.80887537  0.75129995  0.42024063     0.03100
C2245       C  0.82031329  0.74868661  0.40829192    -0.22200
C2246       C  0.81969573  0.73411978  0.40002691     0.12300
S2247       S  0.80952691  0.70578231  0.39196860    -0.05900
C2248       C  0.82564320  0.71439972  0.38235464    -0.09300
C2249       C  0.82971352  0.72947890  0.38794571    -0.26000
S2250       S  0.80771817  0.76817128  0.43163865    -0.03200
C2251       C  0.79152609  0.75973624  0.44122452    -0.16600
C2252       C  0.78731505  0.74463910  0.43576061    -0.14600
H2253       H  0.78780714  0.71627206  0.41823339     0.20800
H2254       H  0.82929599  0.75763076  0.40554040     0.16800
H2255       H  0.83942311  0.73675650  0.38338275     0.19300
H2256       H  0.77754959  0.73750853  0.44044978     0.12700
C2257       C  0.23776393  0.57228698  0.67996677     0.16500
C2258       C  0.23512367  0.58380501  0.66805952    -0.32500
C2259       C  0.22000504  0.59114105  0.66756920     0.20900
C2260       C  0.20808013  0.58717831  0.67842137     0.03100
C2261       C  0.21074124  0.57573712  0.69033790    -0.22200
C2262       C  0.22583070  0.56844178  0.69085700     0.12300
S2263       S  0.25513462  0.56178775  0.68248004    -0.05900
C2264       C  0.24619654  0.55221831  0.69841735    -0.09300
C2265       C  0.23062126  0.55699411  0.70152022    -0.26000
S2266       S  0.19059066  0.59737804  0.67591161    -0.03200
C2267       C  0.19940049  0.60720556  0.66009440    -0.16600
C2268       C  0.21508729  0.60265311  0.65697956    -0.14600
H2269       H  0.24440543  0.58687941  0.65955479     0.20800
H2270       H  0.20145086  0.57265032  0.69883130     0.16800
H2271       H  0.22312589  0.55219165  0.71093969     0.19300
H2272       H  0.22254584  0.60755933  0.64759681     0.12700
C2273       C  0.20857322  0.72475544  0.55360281     0.16500
C2274       C  0.21150045  0.73752135  0.54314820    -0.32500
C2275       C  0.22611978  0.73755606  0.53490794     0.20900
C2276       C  0.23732161  0.72544655  0.53699467     0.03100
C2277       C  0.23441786  0.71272769  0.54748368    -0.22200
C2278       C  0.21980186  0.71268071  0.55569331     0.12300
S2279       S  0.19155157  0.72242588  0.56461878    -0.05900
C2280       C  0.19967786  0.70500657  0.57213937    -0.09300
C2281       C  0.21477375  0.70130844  0.56632041    -0.26000
S2282       S  0.25415922  0.72744682  0.52567003    -0.03200
C2283       C  0.24602504  0.74477614  0.51799741    -0.16600
C2284       C  0.23108010  0.74875168  0.52403159    -0.14600
H2285       H  0.20275029  0.74694716  0.54145091     0.20800
H2286       H  0.24312030  0.70324308  0.54910059     0.16800
H2287       H  0.22173159  0.69088808  0.56965446     0.19300
H2288       H  0.22412304  0.75910466  0.52046460     0.12700
C2289       C  0.59913210  0.21728335  0.69354233     0.16500
C2290       C  0.58770559  0.22021570  0.70544504    -0.32500
C2291       C  0.57714810  0.23306134  0.70309780     0.20900
C2292       C  0.57794566  0.24263164  0.68956714     0.03100
C2293       C  0.58942546  0.23973806  0.67768920    -0.22200
C2294       C  0.59994925  0.22684365  0.68000983     0.12300
S2295       S  0.61281483  0.20210522  0.69400025    -0.05900
C2296       C  0.61972815  0.20868718  0.67573967    -0.09300
C2297       C  0.61178170  0.22199861  0.66975938    -0.26000
S2298       S  0.56399269  0.25758669  0.68898182    -0.03200
C2299       C  0.55698852  0.25081353  0.70713905    -0.16600
C2300       C  0.56514776  0.23769962  0.71323037    -0.14600
H2301       H  0.58701133  0.21277111  0.71600158     0.20800
H2302       H  0.59007546  0.24713968  0.66709774     0.16800
H2303       H  0.61437968  0.22775449  0.65846874     0.19300
H2304       H  0.56246495  0.23188801  0.72448135     0.12700
C2305       C  0.71562039  0.22415740  0.55659485     0.16500
C2306       C  0.71822440  0.23551459  0.54452958    -0.32500
C2307       C  0.73206533  0.23382193  0.53516051     0.20900
C2308       C  0.74277130  0.22134590  0.53764106     0.03100
C2309       C  0.74012956  0.20997798  0.54963310    -0.22200
C2310       C  0.72635690  0.21170990  0.55902876     0.12300
S2311       S  0.69980450  0.22425630  0.56953906    -0.05900
C2312       C  0.70779950  0.20736068  0.57832221    -0.09300
C2313       C  0.72192250  0.20202167  0.57143173    -0.26000
S2314       S  0.75898601  0.22149718  0.52527373    -0.03200
C2315       C  0.75133177  0.23860096  0.51666267    -0.16600
C2316       C  0.73691553  0.24378918  0.52308348    -0.14600
H2317       H  0.70992409  0.24531095  0.54263242     0.20800
H2318       H  0.74852475  0.20028554  0.55165184     0.16800
H2319       H  0.72873667  0.19171338  0.57537000     0.19300
H2320       H  0.73044776  0.25436924  0.51925939     0.12700
C2321       C  0.74309387  0.56833335  0.18429157     0.16500
C2322       C  0.73960681  0.57843752  0.17135313    -0.32500
C2323       C  0.72530365  0.58726550  0.17195233     0.20900
C2324       C  0.71486427  0.58597580  0.18478762     0.03100
C2325       C  0.71829186  0.57578467  0.19766283    -0.22200
C2326       C  0.73266171  0.56707939  0.19714220     0.12300
S2327       S  0.76000097  0.55693811  0.18604362    -0.05900
C2328       C  0.75299968  0.55047472  0.20434281    -0.09300
C2329       C  0.73826897  0.55683204  0.20867846    -0.26000
S2330       S  0.69838737  0.59802684  0.18348838    -0.03200
C2331       C  0.70567161  0.60504094  0.16551126    -0.16600
C2332       C  0.72006325  0.59813611  0.16081736    -0.14600
H2333       H  0.74779705  0.57953429  0.16134583     0.20800
H2334       H  0.71020610  0.57485150  0.20776595     0.16800
H2335       H  0.73200871  0.55413562  0.21970783     0.19300
H2336       H  0.72655128  0.60111913  0.14999215     0.12700
C2337       C  0.59257168  0.71765237  0.16871912     0.16500
C2338       C  0.58120842  0.72979656  0.17115746    -0.32500
C2339       C  0.57196395  0.72911531  0.18515704     0.20900
C2340       C  0.57389942  0.71685916  0.19618751     0.03100
C2341       C  0.58523184  0.70472373  0.19373246    -0.22200
C2342       C  0.59450969  0.70543398  0.17978252     0.12300
S2343       S  0.60516973  0.71643963  0.15268230    -0.05900
C2344       C  0.61320726  0.69932240  0.16101295    -0.09300
C2345       C  0.60629570  0.69486869  0.17541929    -0.26000
S2346       S  0.56159441  0.71815467  0.21242088    -0.03200
C2347       C  0.55373391  0.73542130  0.20431611    -0.16600
C2348       C  0.56040291  0.73984517  0.18977271    -0.14600
H2349       H  0.57970332  0.73939310  0.16257210     0.20800
H2350       H  0.58680625  0.69517915  0.20236826     0.16800
H2351       H  0.60979189  0.68454996  0.18245256     0.19300
H2352       H  0.55698712  0.75033784  0.18295671     0.12700
C2353       C  0.80477411  0.07488783  0.78894260     0.16500
C2354       C  0.80731847  0.08567892  0.80154705    -0.32500
C2355       C  0.82134576  0.09494555  0.80117025     0.20900
C2356       C  0.83240153  0.09342866  0.78888502     0.03100
C2357       C  0.82991417  0.08257556  0.77635403    -0.22200
C2358       C  0.81583447  0.07342815  0.77665229     0.12300
S2359       S  0.78832559  0.06287684  0.78691260    -0.05900
C2360       C  0.79640020  0.05589150  0.76925974    -0.09300
C2361       C  0.81111558  0.06253770  0.76534344    -0.26000
S2362       S  0.84845600  0.10596983  0.79039302    -0.03200
C2363       C  0.84017944  0.11348118  0.80772988    -0.16600
C2364       C  0.82575937  0.10641617  0.81205783    -0.14600
H2365       H  0.79867054  0.08693891  0.81109646     0.20800
H2366       H  0.83846733  0.08146005  0.76670070     0.16800
H2367       H  0.81794541  0.05964862  0.75472584     0.19300
H2368       H  0.81875907  0.10961377  0.82246489     0.12700
C2369       C  0.73140851  0.09526861  0.68018905     0.16500
C2370       C  0.74388507  0.08441244  0.68322773    -0.32500
C2371       C  0.74312135  0.07545327  0.69740624     0.20900
C2372       C  0.73045422  0.07717504  0.70801294     0.03100
C2373       C  0.71798587  0.08798000  0.70495470    -0.22200
C2374       C  0.71878856  0.09697815  0.69084085     0.12300
S2375       S  0.73024271  0.10751729  0.66388324    -0.05900
C2376       C  0.71260182  0.11509219  0.67155022    -0.09300
C2377       C  0.70794753  0.10828471  0.68594122    -0.26000
S2378       S  0.73162731  0.06523577  0.72449285    -0.03200
C2379       C  0.74941199  0.05780995  0.71709252    -0.16600
C2380       C  0.75409685  0.06434903  0.70257693    -0.14600
H2381       H  0.75378579  0.08307979  0.67496099     0.20800
H2382       H  0.70812270  0.08936860  0.71325946     0.16800
H2383       H  0.69731732  0.11154811  0.69261100     0.19300
H2384       H  0.76486033  0.06107632  0.69611576     0.12700
C2385       C  0.09822525  0.82447259  0.76962616     0.16500
C2386       C  0.08670063  0.82251210  0.75760828    -0.32500
C2387       C  0.07711638  0.80874290  0.75817930     0.20900
C2388       C  0.07896274  0.79738928  0.77014994     0.03100
C2389       C  0.09052055  0.79932451  0.78213729    -0.22200
C2390       C  0.10004993  0.81313397  0.78160591     0.12300
S2391       S  0.11092035  0.84040582  0.77112781    -0.05900
C2392       C  0.11875723  0.83175319  0.78813167    -0.09300
C2393       C  0.11180595  0.81724567  0.79226630    -0.26000
S2394       S  0.06605589  0.78161887  0.76884323    -0.03200
C2395       C  0.05804815  0.79041853  0.75199360    -0.16600
C2396       C  0.06513459  0.80479518  0.74769709    -0.14600
H2397       H  0.08521301  0.83138142  0.74825780     0.20800
H2398       H  0.09195996  0.79048816  0.79153431     0.16800
H2399       H  0.11516194  0.81003691  0.80251219     0.19300
H2400       H  0.06163619  0.81202653  0.73751776     0.12700
C2401       C  0.08456198  0.70456575  0.67869917     0.16500
C2402       C  0.07420258  0.70780649  0.69148592    -0.32500
C2403       C  0.06655886  0.72276293  0.69172764     0.20900
C2404       C  0.06895522  0.73390993  0.67966108     0.03100
C2405       C  0.07919599  0.73061430  0.66680786    -0.22200
C2406       C  0.08698939  0.71574327  0.66667734     0.12300
S2407       S  0.09555594  0.68745809  0.67662058    -0.05900
C2408       C  0.10363343  0.69549379  0.65943487    -0.09300
C2409       C  0.09786791  0.71058625  0.65555265    -0.26000
S2410       S  0.05884296  0.75145785  0.68226878    -0.03200
C2411       C  0.05140866  0.74378143  0.69989968    -0.16600
C2412       C  0.05645953  0.72835576  0.70339050    -0.14600
H2413       H  0.07239976  0.69915970  0.70097666     0.20800
H2414       H  0.08120840  0.73936923  0.65745205     0.16800
H2415       H  0.10166293  0.71760422  0.64533771     0.19300
H2416       H  0.05301626  0.72164283  0.71392945     0.12700
C2417       C  0.81384198  0.80283377  0.03169466     0.16500
C2418       C  0.82695544  0.80656377  0.04141083    -0.32500
C2419       C  0.82639611  0.82100850  0.04988645     0.20900
C2420       C  0.81343081  0.83134129  0.04866384     0.03100
C2421       C  0.80035307  0.82765426  0.03887608    -0.22200
C2422       C  0.80085769  0.81315347  0.03048799     0.12300
S2423       S  0.81219750  0.78585907  0.02054083    -0.05900
C2424       C  0.79382521  0.79275130  0.01416111    -0.09300
C2425       C  0.78929211  0.80741568  0.02043297    -0.26000
S2426       S  0.81486287  0.84806239  0.06022693    -0.03200
C2427       C  0.83305222  0.84097140  0.06692785    -0.16600
C2428       C  0.83774250  0.82650068  0.06030986    -0.14600
H2429       H  0.83707980  0.79850408  0.04242374     0.20800
H2430       H  0.79017814  0.83566197  0.03795100     0.16800
H2431       H  0.77823604  0.81361904  0.01764687     0.19300
H2432       H  0.84869027  0.82016058  0.06317287     0.12700
C2433       C  0.72603725  0.70582155  0.05062051     0.16500
C2434       C  0.73849974  0.70954685  0.04003342    -0.32500
C2435       C  0.73692039  0.72346552  0.03078839     0.20900
C2436       C  0.72347003  0.73317316  0.03189666     0.03100
C2437       C  0.71092640  0.72935254  0.04235814    -0.22200
C2438       C  0.71258853  0.71552143  0.05172871     0.12300
S2439       S  0.72597657  0.68985914  0.06336640    -0.05900
C2440       C  0.70767477  0.69637268  0.07037677    -0.09300
C2441       C  0.70198003  0.71013327  0.06300178    -0.26000
S2442       S  0.72404227  0.74974044  0.01995451    -0.03200
C2443       C  0.74263964  0.74355018  0.01344247    -0.16600
C2444       C  0.74794298  0.72932954  0.02016669    -0.14600
H2445       H  0.74907742  0.70206834  0.03922505     0.20800
H2446       H  0.70045922  0.73695993  0.04334218     0.16800
H2447       H  0.69080939  0.71606052  0.06587539     0.19300
H2448       H  0.75931996  0.72365969  0.01753574     0.12700
C2449       C  0.95447528  0.81630547  0.79333910     0.16500
C2450       C  0.96479962  0.80352881  0.78983149    -0.32500
C2451       C  0.97291607  0.80390332  0.77515652     0.20900
C2452       C  0.97095381  0.81651603  0.76453434     0.03100
C2453       C  0.96069865  0.82931639  0.76807539    -0.22200
C2454       C  0.95247826  0.82886499  0.78267119     0.12300
S2455       S  0.94308498  0.81779545  0.81020241    -0.05900
C2456       C  0.93540549  0.83545014  0.80272956    -0.09300
C2457       C  0.94159589  0.83992368  0.78801121    -0.26000
S2458       S  0.98171301  0.81471758  0.74731671    -0.03200
C2459       C  0.98890015  0.79672030  0.75442362    -0.16600
C2460       C  0.98321600  0.79246324  0.76940793    -0.14600
H2461       H  0.96628150  0.79364201  0.79808128     0.20800
H2462       H  0.95905407  0.83910124  0.75973424     0.16800
H2463       H  0.93811238  0.85050791  0.78138972     0.19300
H2464       H  0.98641332  0.78159819  0.77572463     0.12700
C2465       C  0.83302001  0.94771695  0.78234297     0.16500
C2466       C  0.83028270  0.95905026  0.77029932    -0.32500
C2467       C  0.81632963  0.96833204  0.77136939     0.20900
C2468       C  0.80558124  0.96642909  0.78388016     0.03100
C2469       C  0.80834963  0.95513124  0.79596183    -0.22200
C2470       C  0.82230201  0.94583141  0.79487589     0.12300
S2471       S  0.84912482  0.93517844  0.78306460    -0.05900
C2472       C  0.84136665  0.92725238  0.80044645    -0.09300
C2473       C  0.82703794  0.93411307  0.80533929    -0.26000
S2474       S  0.78930950  0.97875289  0.78294594    -0.03200
C2475       C  0.79708857  0.98659607  0.76553284    -0.16600
C2476       C  0.81153187  0.97991559  0.76079382    -0.14600
H2477       H  0.83862803  0.96052255  0.76049748     0.20800
H2478       H  0.79997283  0.95361388  0.80572998     0.16800
H2479       H  0.82037485  0.93067677  0.81589883     0.19300
H2480       H  0.81814117  0.98332104  0.75018317     0.12700
C2481       C  0.83279278  0.81447732  0.91254398     0.16500
C2482       C  0.82945568  0.80184843  0.92309105    -0.32500
C2483       C  0.81441096  0.80176603  0.93059192     0.20900
C2484       C  0.80324346  0.81375094  0.92776465     0.03100
C2485       C  0.80658273  0.82634946  0.91724093    -0.22200
C2486       C  0.82157802  0.82640840  0.90972087     0.12300
S2487       S  0.85016895  0.81664038  0.90198955    -0.05900
C2488       C  0.84217747  0.83375509  0.89361329    -0.09300
C2489       C  0.82690274  0.83752285  0.89893121    -0.26000
S2490       S  0.78577438  0.81165756  0.93810647    -0.03200
C2491       C  0.79352444  0.79440705  0.94634568    -0.16600
C2492       C  0.80887168  0.79056311  0.94123686    -0.14600
H2493       H  0.83815927  0.79248684  0.92530032     0.20800
H2494       H  0.79785677  0.83568168  0.91498541     0.16800
H2495       H  0.81991007  0.84768627  0.89494039     0.19300
H2496       H  0.81565860  0.78025146  0.94522168     0.12700
C2497       C  0.94665191  0.73050799  0.66640051     0.16500
C2498       C  0.95777586  0.74268504  0.66955290    -0.32500
C2499       C  0.96626698  0.74187735  0.68400445     0.20900
C2500       C  0.96382327  0.72946573  0.69476265     0.03100
C2501       C  0.95276892  0.71730154  0.69158966    -0.22200
C2502       C  0.94426518  0.71813782  0.67720452     0.12300
S2503       S  0.93486936  0.72942466  0.64976363    -0.05900
C2504       C  0.92662004  0.71215875  0.65751857    -0.09300
C2505       C  0.93285243  0.70755188  0.67215939    -0.26000
S2506       S  0.97531220  0.73045885  0.71152896    -0.03200
C2507       C  0.98356255  0.74780650  0.70404067    -0.16600
C2508       C  0.97760864  0.75251048  0.68929134    -0.14600
H2509       H  0.95967243  0.75237817  0.66116130     0.20800
H2510       H  0.95084459  0.70762111  0.70000002     0.16800
H2511       H  0.92909066  0.69715053  0.67892238     0.19300
H2512       H  0.98150666  0.76298657  0.68272225     0.12700
C2513       C  0.80261168  0.57820114  0.67997349     0.16500
C2514       C  0.80460144  0.58939582  0.66763551    -0.32500
C2515       C  0.81897931  0.59806826  0.66722844     0.20900
C2516       C  0.83085595  0.59566784  0.67856886     0.03100
C2517       C  0.82886696  0.58447803  0.69090754    -0.22200
C2518       C  0.81445953  0.57586124  0.69136292     0.12300
S2519       S  0.78602785  0.56656212  0.68259026    -0.05900
C2520       C  0.79507672  0.55852418  0.69929150    -0.09300
C2521       C  0.81018621  0.56460854  0.70253018    -0.26000
S2522       S  0.84728744  0.60755142  0.67616543    -0.03200
C2523       C  0.83805659  0.61594932  0.65973585    -0.16600
C2524       C  0.82305541  0.60966463  0.65634568    -0.14600
H2525       H  0.79532772  0.59131604  0.65880378     0.20800
H2526       H  0.83808775  0.58265412  0.69981470     0.16800
H2527       H  0.81763174  0.56099570  0.71249337     0.19300
H2528       H  0.81541456  0.61352924  0.64663524     0.12700
C2529       C  0.81406039  0.71946569  0.54708363     0.16500
C2530       C  0.80158652  0.72316759  0.53653187    -0.32500
C2531       C  0.80290209  0.73731833  0.52762529     0.20900
C2532       C  0.81604353  0.74736678  0.52908499     0.03100
C2533       C  0.82854009  0.74365565  0.53964325    -0.22200
C2534       C  0.82720161  0.72950093  0.54859238     0.12300
S2535       S  0.81459828  0.70297692  0.55912768    -0.05900
C2536       C  0.83270004  0.70969445  0.56638735    -0.09300
C2537       C  0.83795581  0.72394396  0.55963748    -0.26000
S2538       S  0.81521908  0.76405909  0.51728712    -0.03200
C2539       C  0.79695409  0.75739722  0.51037610    -0.16600
C2540       C  0.79192748  0.74300301  0.51690885    -0.14600
H2541       H  0.79126258  0.71540465  0.53537638     0.20800
H2542       H  0.83879672  0.75148723  0.54089723     0.16800
H2543       H  0.84896689  0.73003612  0.56272541     0.19300
H2544       H  0.78075433  0.73706166  0.51406299     0.12700
C2545       C  0.71678907  0.95024662  0.69310151     0.16500
C2546       C  0.71960486  0.96026486  0.70621746    -0.32500
C2547       C  0.73311696  0.97018197  0.70565738     0.20900
C2548       C  0.74341899  0.97012575  0.69264387     0.03100
C2549       C  0.74060689  0.96006947  0.67949748    -0.22200
C2550       C  0.72705120  0.95013880  0.68005691     0.12300
S2551       S  0.70096388  0.93748714  0.69151740    -0.05900
C2552       C  0.70817929  0.93185937  0.67305069    -0.09300
C2553       C  0.72219232  0.93954866  0.66848515    -0.26000
S2554       S  0.75915823  0.98307395  0.69436849    -0.03200
C2555       C  0.75172214  0.98862814  0.71279806    -0.16600
C2556       C  0.73779651  0.98077557  0.71724381    -0.14600
H2557       H  0.71160254  0.96035124  0.71638307     0.20800
H2558       H  0.74859207  0.96000136  0.66931804     0.16800
H2559       H  0.72841829  0.93760390  0.65731032     0.19300
H2560       H  0.73145390  0.98268536  0.72836448     0.12700
C2561       C  0.59050385  0.83479184  0.68131909     0.16500
C2562       C  0.57864316  0.83115589  0.69258651    -0.32500
C2563       C  0.57097670  0.81628498  0.69125908     0.20900
C2564       C  0.57484386  0.80553614  0.67921358     0.03100
C2565       C  0.58667758  0.80918904  0.66793338    -0.22200
C2566       C  0.59438205  0.82403032  0.66929535     0.12300
S2567       S  0.60146506  0.85203518  0.68104617    -0.05900
C2568       C  0.61136839  0.84465806  0.66453779    -0.09300
C2569       C  0.60630685  0.82964414  0.65960077    -0.26000
S2570       S  0.56416497  0.78812010  0.67968270    -0.03200
C2571       C  0.55447238  0.79536000  0.69635897    -0.16600
C2572       C  0.55930323  0.81049150  0.70116268    -0.14600
H2573       H  0.57560044  0.83949671  0.70203228     0.20800
H2574       H  0.58979599  0.80080426  0.65854896     0.16800
H2575       H  0.61122230  0.82303620  0.64959432     0.19300
H2576       H  0.55451320  0.81691949  0.71135138     0.12700
C2577       C  0.71272661  0.82382502  0.55498185     0.16500
C2578       C  0.71475872  0.81198568  0.54328705    -0.32500
C2579       C  0.72914562  0.81203143  0.53464109     0.20900
C2580       C  0.74099684  0.82329880  0.53756773     0.03100
C2581       C  0.73902738  0.83502015  0.54936193    -0.22200
C2582       C  0.72461153  0.83504251  0.55792484     0.12300
S2583       S  0.69602839  0.82606545  0.56650215    -0.05900
C2584       C  0.70516111  0.84230604  0.57537931    -0.09300
C2585       C  0.72035466  0.84567523  0.56962944    -0.26000
S2586       S  0.75733440  0.82171929  0.52546685    -0.03200
C2587       C  0.74810632  0.80572265  0.51631735    -0.16600
C2588       C  0.73320924  0.80180640  0.52249352    -0.14600
H2589       H  0.70547824  0.80326196  0.54090798     0.20800
H2590       H  0.74823250  0.84385766  0.55161680     0.16800
H2591       H  0.72789420  0.85537304  0.57373774     0.19300
H2592       H  0.72565089  0.79222593  0.51813329     0.12700
C2593       C  0.73491960  0.72617464  0.92529062     0.16500
C2594       C  0.73198752  0.71406298  0.91414432    -0.32500
C2595       C  0.71846303  0.71565968  0.90440311     0.20900
C2596       C  0.70816450  0.72863029  0.90578217     0.03100
C2597       C  0.71103322  0.74072579  0.91704131    -0.22200
C2598       C  0.72469327  0.73921271  0.92668691     0.12300
S2599       S  0.75099310  0.72660856  0.93778981    -0.05900
C2600       C  0.74396315  0.74461409  0.94495350    -0.09300
C2601       C  0.72981815  0.74986898  0.93802891    -0.26000
S2602       S  0.69258986  0.72840540  0.89256656    -0.03200
C2603       C  0.70017566  0.71072783  0.88503420    -0.16600
C2604       C  0.71394133  0.70535439  0.89255824    -0.14600
H2605       H  0.74002974  0.70394096  0.91295860     0.20800
H2606       H  0.70310598  0.75095020  0.91808687     0.16800
H2607       H  0.72371704  0.76092590  0.94102029     0.19300
H2608       H  0.72042883  0.69455396  0.88946945     0.12700
C2609       C  0.59084419  0.72618721  0.78106986     0.16500
C2610       C  0.57984816  0.73839214  0.77774297    -0.32500
C2611       C  0.57161162  0.73762758  0.76318801     0.20900
C2612       C  0.57420117  0.72532105  0.75235640     0.03100
C2613       C  0.58529039  0.71312902  0.75565609    -0.22200
C2614       C  0.59349703  0.71385339  0.77028339     0.12300
S2615       S  0.60191121  0.72496231  0.79812577    -0.05900
C2616       C  0.61026365  0.70760490  0.79071669    -0.09300
C2617       C  0.60465166  0.70311299  0.77576305    -0.26000
S2618       S  0.56276108  0.72654521  0.73545767    -0.03200
C2619       C  0.55443271  0.74380446  0.74314245    -0.16600
C2620       C  0.56033031  0.74827759  0.75795937    -0.14600
H2621       H  0.57775082  0.74799906  0.78614577     0.20800
H2622       H  0.58735487  0.70349626  0.74727259     0.16800
H2623       H  0.60855625  0.69265213  0.76920790     0.19300
H2624       H  0.55649017  0.75870863  0.76460994     0.12700
C2625       C  0.72720633  0.59986584  0.78282285     0.16500
C2626       C  0.73987875  0.58920693  0.78010033    -0.32500
C2627       C  0.73915127  0.57959480  0.76639287     0.20900
C2628       C  0.72642505  0.58057879  0.75578176     0.03100
C2629       C  0.71376890  0.59132233  0.75846264    -0.22200
C2630       C  0.71444836  0.60088144  0.77225527     0.12300
S2631       S  0.72577800  0.61232584  0.79890861    -0.05900
C2632       C  0.70772809  0.61899322  0.79142241    -0.09300
C2633       C  0.70321387  0.61185790  0.77712453    -0.26000
S2634       S  0.72772832  0.56764965  0.73999490    -0.03200
C2635       C  0.74558786  0.56084449  0.74782960    -0.16600
C2636       C  0.75019093  0.56833299  0.76187928    -0.14600
H2637       H  0.74981829  0.58835077  0.78837980     0.20800
H2638       H  0.70377469  0.59209547  0.75024426     0.16800
H2639       H  0.69231167  0.61451158  0.77063387     0.19300
H2640       H  0.76098355  0.56558366  0.76852896     0.12700
loop_ 
_geom_bond_atom_site_label_1 
_geom_bond_atom_site_label_2 
_geom_bond_distance 
_geom_bond_site_symmetry_2 
_ccdc_geom_bond_type 
N1            N2   1.321       .  A
N1            C5   1.344       .  A
N1           Cu9   2.063       .  S
N2            C3   1.343       .  A
N2           Cu8   2.072       .  S
C3            C4   1.385       .  A
C3            H6   1.082       .  S
C4            C5   1.382       .  A
C4         C2603   1.472       .  S
C5            H7   1.082       .  S
Cu8          N11   2.073       .  S
Cu9          N19   2.063       .  S
Cu10         N12   2.079       .  S
Cu10         N18   2.078       .  S
N11          N12   1.322       .  A
N11          C15   1.344       .  A
N12          C13   1.346       .  A
C13          C14   1.386       .  A
C13          H16   1.082       .  S
C14          C15   1.384       .  A
C14        C2632   1.476       .  S
C15          H17   1.082       .  S
N18          N19   1.322       .  A
N18          C22   1.346       .  A
N19          C20   1.342       .  A
C20          C21   1.382       .  A
C20          H23   1.082       .  S
C21          C22   1.386       .  A
C21        C2616   1.473       .  S
C22          H24   1.081       .  S
N25          N26   1.323       .  A
N25          C29   1.347       .  A
N25         Cu33   2.080       .  S
N26          C27   1.342       .  A
N26         Cu32   2.069       .  S
C27          C28   1.382       .  A
C27          H30   1.082       .  S
C28          C29   1.386       .  A
C28        C2552   1.474       .  S
C29          H31   1.081       .  S
Cu32         N35   2.068       .  S
Cu33         N43   2.079       .  S
Cu34         N36   2.058       .  S
Cu34         N42   2.058       .  S
N35          N36   1.320       .  A
N35          C39   1.345       .  A
N36          C37   1.342       .  A
C37          C38   1.383       .  A
C37          H40   1.082       .  S
C38          C39   1.385       .  A
C38        C2568   1.471       .  S
C39          H41   1.082       .  S
N42          N43   1.322       .  A
N42          C46   1.342       .  A
N43          C44   1.346       .  A
C44          C45   1.387       .  A
C44          H47   1.082       .  S
C45          C46   1.380       .  A
C45        C2584   1.472       .  S
C46          H48   1.082       .  S
N49          N50   1.322       .  A
N49          C53   1.343       .  A
N49         Cu57   2.066       .  S
N50          C51   1.346       .  A
N50         Cu56   2.082       .  S
C51          C52   1.386       .  A
C51          H54   1.082       .  S
C52          C53   1.383       .  A
C52        C2536   1.475       .  S
C53          H55   1.082       .  S
Cu56         N59   2.082       .  S
Cu57         N67   2.066       .  S
Cu58         N60   2.067       .  S
Cu58         N66   2.067       .  S
N59          N60   1.322       .  A
N59          C63   1.347       .  A
N60          C61   1.343       .  A
C61          C62   1.382       .  A
C61          H64   1.082       .  S
C62          C63   1.387       .  A
C62        C2523   1.476       .  S
C63          H65   1.082       .  S
N66          N67   1.321       .  A
N66          C70   1.343       .  A
N67          C68   1.344       .  A
C68          C69   1.383       .  A
C68          H71   1.082       .  S
C69          C70   1.385       .  A
C69        C2504   1.472       .  S
C70          H72   1.082       .  S
N73          N74   1.322       .  A
N73          C77   1.343       .  A
N73         Cu81   2.070       .  S
N74          C75   1.346       .  A
N74         Cu80   2.076       .  S
C75          C76   1.386       .  A
C75          H78   1.082       .  S
C76          C77   1.382       .  A
C76        C2472   1.474       .  S
C77          H79   1.082       .  S
Cu80         N83   2.076       .  S
Cu81         N91   2.070       .  S
Cu82         N84   2.067       .  S
Cu82         N90   2.067       .  S
N83          N84   1.322       .  A
N83          C87   1.345       .  A
N84          C85   1.344       .  A
C85          C86   1.383       .  A
C85          H88   1.082       .  S
C86          C87   1.386       .  A
C86        C2488   1.474       .  S
C87          H89   1.082       .  S
N90          N91   1.321       .  A
N90          C94   1.343       .  A
N91          C92   1.345       .  A
C92          C93   1.386       .  A
C92          H95   1.082       .  S
C93          C94   1.383       .  A
C93        C2456   1.473       .  S
C94          H96   1.082       .  S
O97        Cu105   2.010       .  S
O97         C107   1.278   1_556  A
O98        Cu105   2.008       .  S
O98         C108   1.278       .  A
O99        Cu105   2.004       .  S
O99         C109   1.277   1_556  A
O100       Cu105   2.003       .  S
O100        C110   1.277       .  A
O101       Cu106   2.014       .  S
O101        C110   1.278       .  A
O102       Cu106   2.011       .  S
O102        C109   1.279   1_556  A
O103       Cu106   1.993       .  S
O103        C108   1.276       .  A
O104       Cu106   1.991       .  S
O104        C107   1.275   1_556  A
Cu105      Cu106   2.376       .  S
C107       C2424   1.465       .  S
C108       C2600   1.466       .  S
C109       C2443   1.471       .  S
C110       C2491   1.471       .  S
O111       Cu119   1.995       .  S
O111        C121   1.275       .  A
O112       Cu119   1.996       .  S
O112        C122   1.276       .  A
O113       Cu119   2.019       .  S
O113        C123   1.280       .  A
O114       Cu119   2.018       .  S
O114        C124   1.279   1_455  A
O115       Cu120   1.993       .  S
O115        C124   1.276   1_455  A
O116       Cu120   1.997       .  S
O116        C123   1.276       .  A
O117       Cu120   2.019       .  S
O117        C122   1.279       .  A
O118       Cu120   2.019       .  S
O118        C121   1.279       .  A
Cu119      Cu120   2.375       .  S
C121       C2411   1.470       .  S
C122       C2459   1.470   1_455  S
C123       C2395   1.471       .  S
C124       C2507   1.469       .  S
O125       Cu133   2.010       .  S
O125        C135   1.278       .  A
O126       Cu133   2.006       .  S
O126        C136   1.277       .  A
O127       Cu133   2.019       .  S
O127        C137   1.279       .  A
O128       Cu133   2.017       .  S
O128        C138   1.279   1_545  A
O129       Cu134   1.997       .  S
O129        C138   1.276   1_545  A
O130       Cu134   1.999       .  S
O130        C137   1.276       .  A
O131       Cu134   2.014       .  S
O131        C136   1.279       .  A
O132       Cu134   2.015       .  S
O132        C135   1.278       .  A
Cu133      Cu134   2.374       .  S
C135       C2360   1.474       .  S
C136       C2555   1.472   1_545  S
C137       C2379   1.472       .  S
C138       C2475   1.470       .  S
N139        N140   1.322       .  A
N139        C143   1.344       .  A
N139       Cu147   2.069       .  S
N140        C141   1.346       .  A
N140       Cu146   2.080       .  S
C141        C142   1.387       .  A
C141        H144   1.082       .  S
C142        C143   1.383       .  A
C142       C2344   1.476       .  S
C143        H145   1.083       .  S
Cu146       N149   2.080       .  S
Cu147       N157   2.069       .  S
Cu148       N150   2.077       .  S
Cu148       N156   2.077       .  S
N149        N150   1.323       .  A
N149        C153   1.345       .  A
N150        C151   1.346       .  A
C151        C152   1.386       .  A
C151        H154   1.083       .  S
C152        C153   1.385       .  A
C152       C2331   1.478       .  S
C153        H155   1.083       .  S
N156        N157   1.322       .  A
N156        C160   1.345       .  A
N157        C158   1.344       .  A
C158        C159   1.384       .  A
C158        H161   1.081       .  S
C159        C160   1.385       .  A
C159       C2440   1.475       .  S
C160        H162   1.082       .  S
N163        N164   1.321       .  A
N163        C167   1.343       .  A
N163       Cu171   2.071       .  S
N164        C165   1.344       .  A
N164       Cu170   2.064       .  S
C165        C166   1.383       .  A
C165        H168   1.082       .  S
C166        C167   1.385       .  A
C166       C2312   1.472       .  S
C167        H169   1.082       .  S
Cu170       N173   2.064       .  S
Cu171       N181   2.071       .  S
Cu172       N174   2.076       .  S
Cu172       N180   2.076       .  S
N173        N174   1.322       .  A
N173        C177   1.343       .  A
N174        C175   1.345       .  A
C175        C176   1.384       .  A
C175        H178   1.082       .  S
C176        C177   1.383       .  A
C176       C2296   1.472       .  S
C177        H179   1.081       .  S
N180        N181   1.322       .  A
N180        C184   1.345       .  A
N181        C182   1.344       .  A
C182        C183   1.384       .  A
C182        H185   1.082       .  S
C183        C184   1.386       .  A
C183       C2376   1.476       .  S
C184        H186   1.082       .  S
N187        N188   1.322       .  A
N187        C191   1.343       .  A
N187       Cu195   2.072       .  S
N188        C189   1.344       .  A
N188       Cu194   2.065       .  S
C189        C190   1.383       .  A
C189        H192   1.082       .  S
C190        C191   1.383       .  A
C190       C2267   1.471       .  S
C191        H193   1.082       .  S
Cu194       N197   2.065       .  S
Cu195       N205   2.072       .  S
Cu196       N198   2.065       .  S
Cu196       N204   2.065       .  S
N197        N198   1.321       .  A
N197        C201   1.343       .  A
N198        C199   1.343       .  A
C199        C200   1.382       .  A
C199        H202   1.082       .  S
C200        C201   1.384       .  A
C200       C2280   1.470       .  S
C201        H203   1.082       .  S
N204        N205   1.321       .  A
N204        C208   1.344       .  A
N205        C206   1.344       .  A
C206        C207   1.385       .  A
C206        H209   1.083       .  S
C207        C208   1.384       .  A
C207       C2408   1.474       .  S
C208        H210   1.082       .  S
N211        N212   1.322       .  A
N211        C215   1.347       .  A
N211       Cu219   2.076       .  S
N212        C213   1.343       .  A
N212       Cu218   2.071       .  S
C213        C214   1.383       .  A
C213        H216   1.082       .  S
C214        C215   1.386       .  A
C214       C2232   1.476       .  S
C215        H217   1.082       .  S
Cu218       N221   2.070       .  S
Cu219       N229   2.076       .  S
Cu220       N222   2.068       .  S
Cu220       N228   2.068       .  S
N221        N222   1.321       .  A
N221        C225   1.345       .  A
N222        C223   1.343       .  A
C223        C224   1.385       .  A
C223        H226   1.082       .  S
C224        C225   1.384       .  A
C224       C2248   1.473       .  S
C225        H227   1.082       .  S
N228        N229   1.322       .  A
N228        C232   1.344       .  A
N229        C230   1.344       .  A
C230        C231   1.385       .  A
C230        H233   1.082       .  S
C231        C232   1.382       .  A
C231       C2219   1.472       .  S
C232        H234   1.082       .  S
O235       Cu243   2.025       .  S
O235        C245   1.279       .  A
O236       Cu243   2.025   1_655  S
O236        C246   1.280       .  A
O237       Cu243   2.003       .  S
O237        C247   1.277       .  A
O238       Cu243   1.999       .  S
O238        C248   1.276   1_455  A
O239       Cu244   2.008       .  S
O239        C248   1.278   1_455  A
O240       Cu244   2.008       .  S
O240        C247   1.278       .  A
O241       Cu244   2.007       .  S
O241        C246   1.277   1_455  A
O242       Cu244   2.009       .  S
O242        C245   1.278       .  A
Cu243      Cu244   2.374       .  S
C245       C2168   1.478       .  S
C246       C2200   1.477       .  S
C247       C2184   1.469       .  S
C248       C2216   1.468       .  S
N249        N250   1.322       .  A
N249        C253   1.342       .  A
N249       Cu257   2.068       .  S
N250        C251   1.348       .  A
N250       Cu256   2.084       .  S
C251        C252   1.388       .  A
C251        H254   1.081       .  S
C252        C253   1.382       .  A
C252       C2203   1.478       .  S
C253        H255   1.082       .  S
Cu256       N259   2.083       .  S
Cu257       N267   2.067       .  S
Cu258       N260   2.059       .  S
Cu258       N266   2.058       .  S
N259        N260   1.322       .  A
N259        C263   1.346       .  A
N260        C261   1.342       .  A
C261        C262   1.381       .  A
C261        H264   1.082       .  S
C262        C263   1.387       .  A
C262       C2155   1.473       .  S
C263        H265   1.082       .  S
N266        N267   1.320       .  A
N266        C270   1.342       .  A
N267        C268   1.344       .  A
C268        C269   1.385       .  A
C268        H271   1.082       .  S
C269        C270   1.381       .  A
C269       C2427   1.469       .  S
C270        H272   1.082       .  S
N273        N274   1.321       .  A
N273        C277   1.342       .  A
N273       Cu281   2.060       .  S
N274        C275   1.346       .  A
N274       Cu280   2.078       .  S
C275        C276   1.387       .  A
C275        H278   1.081       .  S
C276        C277   1.381       .  A
C276       C2107   1.473       .  S
C277        H279   1.082       .  S
Cu280       N283   2.079       .  S
Cu281       N291   2.060       .  S
Cu282       N284   2.065       .  S
Cu282       N290   2.064       .  S
N283        N284   1.323       .  A
N283        C287   1.345       .  A
N284        C285   1.343       .  A
C285        C286   1.382       .  A
C285        H288   1.081       .  S
C286        C287   1.385       .  A
C286       C2120   1.472       .  S
C287        H289   1.082       .  S
N290        N291   1.320       .  A
N290        C294   1.345       .  A
N291        C292   1.341       .  A
C292        C293   1.384       .  A
C292        H295   1.082       .  S
C293        C294   1.384       .  A
C293       C2139   1.471       .  S
C294        H296   1.082       .  S
O297       Cu305   2.003       .  S
O297        C307   1.278       .  A
O298       Cu305   2.000       .  S
O298        C308   1.276   1_545  A
O299       Cu305   2.001       .  S
O299        C309   1.276       .  A
O300       Cu305   2.003       .  S
O300        C310   1.277   1_545  A
O301       Cu306   2.005       .  S
O301        C310   1.277   1_545  A
O302       Cu306   2.004       .  S
O302        C309   1.278       .  A
O303       Cu306   2.014       .  S
O303        C308   1.279   1_545  A
O304       Cu306   2.013       .  S
O304        C307   1.278       .  A
Cu305      Cu306   2.375       .  S
C307       C2072   1.472       .  S
C308       C2104   1.470       .  S
C309       C2088   1.467       .  S
C310       C2152   1.468       .  S
N311        N312   1.320       .  A
N311        C315   1.344       .  A
N311       Cu319   2.065       .  S
N312        C313   1.341       .  A
N312       Cu318   2.058       .  S
C313        C314   1.383       .  A
C313        H316   1.082       .  S
C314        C315   1.383       .  A
C314       C2040   1.469       .  S
C315        H317   1.082       .  S
Cu318       N321   2.058       .  S
Cu319       N329   2.066       .  S
Cu320       N322   2.078       .  S
Cu320       N328   2.078       .  S
N321        N322   1.322       .  A
N321        C325   1.343       .  A
N322        C323   1.344       .  A
C323        C324   1.386       .  A
C323        H326   1.081       .  S
C324        C325   1.381       .  A
C324       C2056   1.472       .  S
C325        H327   1.082       .  S
N328        N329   1.322       .  A
N328        C332   1.346       .  A
N329        C330   1.343       .  A
C330        C331   1.383       .  A
C330        H333   1.082       .  S
C331        C332   1.386       .  A
C331       C2024   1.475       .  S
C332        H334   1.083       .  S
O335       Cu343   2.013       .  S
O335        C345   1.279       .  A
O336       Cu343   2.017       .  S
O336        C346   1.279   1_545  A
O337       Cu343   2.010       .  S
O337        C347   1.278       .  A
O338       Cu343   2.011       .  S
O338        C348   1.278   1_545  A
O339       Cu344   2.002       .  S
O339        C348   1.277   1_545  A
O340       Cu344   2.003       .  S
O340        C347   1.277       .  A
O341       Cu344   1.995       .  S
O341        C346   1.276   1_545  A
O342       Cu344   1.991       .  S
O342        C345   1.275       .  A
Cu343      Cu344   2.375       .  S
C345       C1976   1.466       .  S
C346       C2027   1.470       .  S
C347       C1995   1.469       .  S
C348       C2011   1.470       .  S
N349        N350   1.322       .  A
N349        C353   1.345       .  A
N349       Cu357   2.074       .  S
N350        C351   1.344       .  A
N350       Cu356   2.074       .  S
C351        C352   1.385       .  A
C351        H354   1.082       .  S
C352        C353   1.383       .  A
C352       C1960   1.475       .  S
C353        H355   1.082       .  S
Cu356       N359   2.073       .  S
Cu357       N367   2.073       .  S
Cu358       N360   2.069       .  S
Cu358       N366   2.069       .  S
N359        N360   1.322       .  A
N359        C363   1.346       .  A
N360        C361   1.342       .  A
C361        C362   1.384       .  A
C361        H364   1.082       .  S
C362        C363   1.385       .  A
C362       C2008   1.474       .  S
C363        H365   1.082       .  S
N366        N367   1.321       .  A
N366        C370   1.344       .  A
N367        C368   1.345       .  A
C368        C369   1.386       .  A
C368        H371   1.083       .  S
C369        C370   1.384       .  A
C369       C2392   1.475       .  S
C370        H372   1.083       .  S
N373        N374   1.322       .  A
N373        C377   1.342       .  A
N373       Cu381   2.066       .  S
N374        C375   1.348       .  A
N374       Cu380   2.083       .  S
C375        C376   1.388       .  A
C375        H378   1.081       .  S
C376        C377   1.382       .  A
C376       C1928   1.475       .  S
C377        H379   1.082       .  S
Cu380       N383   2.084       .  S
Cu381       N391   2.065       .  S
Cu382       N384   2.065       .  S
Cu382       N390   2.065       .  S
N383        N384   1.323       .  A
N383        C387   1.345       .  A
N384        C385   1.343       .  A
C385        C386   1.381       .  A
C385        H388   1.082       .  S
C386        C387   1.387       .  A
C386       C1912   1.474       .  S
C387        H389   1.082       .  S
N390        N391   1.320       .  A
N390        C394   1.343       .  A
N391        C392   1.344       .  A
C392        C393   1.383       .  A
C392        H395   1.083       .  S
C393        C394   1.385       .  A
C393       C1944   1.473       .  S
C394        H396   1.082       .  S
O397       Cu405   2.000       .  S
O397        C407   1.276       .  A
O398       Cu405   2.003       .  S
O398        C408   1.277       .  A
O399       Cu405   2.027       .  S
O399        C409   1.280       .  A
O400       Cu405   2.024       .  S
O400        C410   1.280       .  A
O401       Cu406   1.992       .  S
O401        C410   1.275       .  A
O402       Cu406   1.987       .  S
O402        C409   1.275       .  A
O403       Cu406   2.019       .  S
O403        C408   1.279       .  A
O404       Cu406   2.018       .  S
O404        C407   1.279       .  A
Cu405      Cu406   2.374       .  S
C407       C1963   1.472       .  S
C408       C1896   1.473   1_556  S
C409       C1915   1.470       .  S
C410       C1880   1.470   1_556  S
N411        N412   1.322       .  A
N411        C415   1.343       .  A
N411       Cu419   2.071       .  S
N412        C413   1.344       .  A
N412       Cu418   2.066       .  S
C413        C414   1.382       .  A
C413        H416   1.082       .  S
C414        C415   1.384       .  A
C414       C1835   1.471       .  S
C415        H417   1.081       .  S
Cu418       N421   2.065       .  S
Cu419       N429   2.071       .  S
Cu420       N422   2.063       .  S
Cu420       N428   2.064       .  S
N421        N422   1.320       .  A
N421        C425   1.342       .  A
N422        C423   1.345       .  A
C423        C424   1.383       .  A
C423        H426   1.082       .  S
C424        C425   1.384       .  A
C424       C1851   1.472       .  S
C425        H427   1.081       .  S
N428        N429   1.322       .  A
N428        C432   1.341       .  A
N429        C430   1.346       .  A
C430        C431   1.385       .  A
C430        H433   1.082       .  S
C431        C432   1.381       .  A
C431       C1864   1.471       .  S
C432        H434   1.082       .  S
O435       Cu443   2.013       .  S
O435        C445   1.279   1_455  A
O436       Cu443   2.013       .  S
O436        C446   1.278       .  A
O437       Cu443   2.002       .  S
O437        C447   1.277   1_455  A
O438       Cu443   2.004       .  S
O438        C448   1.277       .  A
O439       Cu444   2.010       .  S
O439        C448   1.278       .  A
O440       Cu444   2.009       .  S
O440        C447   1.278   1_455  A
O441       Cu444   1.999       .  S
O441        C446   1.277       .  A
O442       Cu444   1.998       .  S
O442        C445   1.276   1_455  A
Cu443      Cu444   2.375       .  S
C445       C1816   1.469       .  S
C446       C1803   1.470       .  S
C447       C1832   1.469       .  S
C448       C1784   1.470       .  S
N449        N450   1.320       .  A
N449        C453   1.344       .  A
N449       Cu457   2.076       .  S
N450        C451   1.343       .  A
N450       Cu456   2.058       .  S
C451        C452   1.382       .  A
C451        H454   1.082       .  S
C452        C453   1.386       .  A
C452       C1819   1.473       .  S
C453        H455   1.082       .  S
Cu456       N459   2.058       .  S
Cu457       N467   2.077       .  S
Cu458       N460   2.077       .  S
Cu458       N466   2.077       .  S
N459        N460   1.322       .  A
N459        C463   1.341       .  A
N460        C461   1.345       .  A
C461        C462   1.386       .  A
C461        H464   1.082       .  S
C462        C463   1.380       .  A
C462       C1768   1.470       .  S
C463        H465   1.082       .  S
N466        N467   1.323       .  A
N466        C470   1.346       .  A
N467        C468   1.344       .  A
C468        C469   1.384       .  A
C468        H471   1.082       .  S
C469        C470   1.386       .  A
C469       C2363   1.477       .  S
C470        H472   1.081       .  S
N473        N474   1.321       .  A
N473        C477   1.345       .  A
N473       Cu481   2.077       .  S
N474        C475   1.343       .  A
N474       Cu480   2.062       .  S
C475        C476   1.382       .  A
C475        H478   1.082       .  S
C476        C477   1.386       .  A
C476       C1736   1.473       .  S
C477        H479   1.082       .  S
Cu480       N483   2.062       .  S
Cu481       N491   2.078       .  S
Cu482       N484   2.080       .  S
Cu482       N490   2.080       .  S
N483        N484   1.322       .  A
N483        C487   1.342       .  A
N484        C485   1.347       .  A
C485        C486   1.386       .  A
C485        H488   1.082       .  S
C486        C487   1.383       .  A
C486       C1723   1.475       .  S
C487        H489   1.082       .  S
N490        N491   1.323       .  A
N490        C494   1.346       .  A
N491        C492   1.345       .  A
C492        C493   1.385       .  A
C492        H495   1.082       .  S
C493        C494   1.386       .  A
C493       C1752   1.478       .  S
C494        H496   1.082       .  S
O497       Cu505   1.998       .  S
O497        C507   1.276       .  A
O498       Cu505   1.998   1_554  S
O498        C508   1.276       .  A
O499       Cu505   2.012       .  S
O499        C509   1.278       .  A
O500       Cu505   2.011       .  S
O500        C510   1.279   1_556  A
O501       Cu506   1.991       .  S
O501        C510   1.275   1_556  A
O502       Cu506   1.988       .  S
O502        C509   1.275       .  A
O503       Cu506   2.024   1_554  S
O503        C508   1.280       .  A
O504       Cu506   2.021       .  S
O504        C507   1.279       .  A
Cu505      Cu506   2.375       .  S
C507       C1720   1.472       .  S
C508       C1691   1.473       .  S
C509       C1771   1.465       .  S
C510       C1707   1.465       .  S
N511        N512   1.321       .  A
N511        C515   1.341       .  A
N511       Cu519   2.063       .  S
N512        C513   1.345       .  A
N512       Cu518   2.067       .  S
C513        C514   1.384       .  A
C513        H516   1.083       .  S
C514        C515   1.384       .  A
C514       C1672   1.472       .  S
C515        H517   1.082       .  S
Cu518       N521   2.067       .  S
Cu519       N529   2.063       .  S
Cu520       N522   2.070       .  S
Cu520       N528   2.070       .  S
N521        N522   1.322       .  A
N521        C525   1.342       .  A
N522        C523   1.345       .  A
C523        C524   1.385       .  A
C523        H526   1.083       .  S
C524        C525   1.382       .  A
C524       C1659   1.472       .  S
C525        H527   1.083       .  S
N528        N529   1.321       .  A
N528        C532   1.343       .  A
N529        C530   1.343       .  A
C530        C531   1.382       .  A
C530        H533   1.082       .  S
C531        C532   1.384       .  A
C531       C1704   1.470       .  S
C532        H534   1.082       .  S
N535        N536   1.321       .  A
N535        C539   1.343       .  A
N535       Cu543   2.068       .  S
N536        C537   1.343       .  A
N536       Cu542   2.060       .  S
C537        C538   1.383       .  A
C537        H540   1.082       .  S
C538        C539   1.383       .  A
C538       C1627   1.470       .  S
C539        H541   1.082       .  S
Cu542       N545   2.060       .  S
Cu543       N553   2.069       .  S
Cu544       N546   2.074       .  S
Cu544       N552   2.075       .  S
N545        N546   1.322       .  A
N545        C549   1.342       .  A
N546        C547   1.345       .  A
C547        C548   1.386       .  A
C547        H550   1.082       .  S
C548        C549   1.381       .  A
C548       C1640   1.471       .  S
C549        H551   1.082       .  S
N552        N553   1.322       .  A
N552        C556   1.344       .  A
N553        C554   1.344       .  A
C554        C555   1.383       .  A
C554        H557   1.082       .  S
C555        C556   1.385       .  A
C555       C1899   1.474       .  S
C556        H558   1.082       .  S
N559        N560   1.323       .  A
N559        C563   1.343       .  A
N559       Cu567   2.069       .  S
N560        C561   1.345       .  A
N560       Cu566   2.075       .  S
C561        C562   1.385       .  A
C561        H564   1.081       .  S
C562        C563   1.382       .  A
C562       C2091   1.472       .  S
C563        H565   1.082       .  S
Cu566       N569   2.076       .  S
Cu567       N577   2.069       .  S
Cu568       N570   2.077       .  S
Cu568       N576   2.076       .  S
N569        N570   1.322       .  A
N569        C573   1.347       .  A
N570        C571   1.344       .  A
C571        C572   1.384       .  A
C571        H574   1.082       .  S
C572        C573   1.386       .  A
C572       C1592   1.477       .  S
C573        H575   1.082       .  S
N576        N577   1.321       .  A
N576        C580   1.345       .  A
N577        C578   1.346       .  A
C578        C579   1.386       .  A
C578        H581   1.082       .  S
C579        C580   1.385       .  A
C579       C1611   1.477       .  S
C580        H582   1.082       .  S
N583        N584   1.323       .  A
N583        C587   1.346       .  A
N583       Cu591   2.081       .  S
N584        C585   1.344       .  A
N584       Cu590   2.071       .  S
C585        C586   1.383       .  A
C585        H588   1.082       .  S
C586        C587   1.386       .  A
C586       C1547   1.476       .  S
C587        H589   1.082       .  S
Cu590       N593   2.071       .  S
Cu591       N601   2.081       .  S
Cu592       N594   2.067       .  S
Cu592       N600   2.068       .  S
N593        N594   1.321       .  A
N593        C597   1.345       .  A
N594        C595   1.343       .  A
C595        C596   1.382       .  A
C595        H598   1.083       .  S
C596        C597   1.385       .  A
C596       C1560   1.472       .  S
C597        H599   1.082       .  S
N600        N601   1.321       .  A
N600        C604   1.344       .  A
N601        C602   1.346       .  A
C602        C603   1.386       .  A
C602        H605   1.081       .  S
C603        C604   1.385       .  A
C603       C1579   1.477       .  S
C604        H606   1.081       .  S
N607        N608   1.321       .  A
N607        C611   1.346       .  A
N607       Cu615   2.076       .  S
N608        C609   1.343       .  A
N608       Cu614   2.066       .  S
C609        C610   1.383       .  A
C609        H612   1.082       .  S
C610        C611   1.387       .  A
C610       C1528   1.475       .  S
C611        H613   1.082       .  S
Cu614       N617   2.066       .  S
Cu615       N625   2.077       .  S
Cu616       N618   2.070       .  S
Cu616       N624   2.070       .  S
N617        N618   1.322       .  A
N617        C621   1.342       .  A
N618        C619   1.345       .  A
C619        C620   1.384       .  A
C619        H622   1.083       .  S
C620        C621   1.383       .  A
C620       C2187   1.472       .  S
C621        H623   1.083       .  S
N624        N625   1.323       .  A
N624        C628   1.345       .  A
N625        C626   1.344       .  A
C626        C627   1.384       .  A
C626        H629   1.082       .  S
C627        C628   1.384       .  A
C627       C1883   1.474       .  S
C628        H630   1.082       .  S
N631        N632   1.323       .  A
N631        C635   1.347       .  A
N631       Cu639   2.082       .  S
N632        C633   1.344       .  A
N632       Cu638   2.077       .  S
C633        C634   1.383       .  A
C633        H636   1.082       .  S
C634        C635   1.387       .  A
C634       C1480   1.478       .  S
C635        H637   1.082       .  S
Cu638       N641   2.076       .  S
Cu639       N649   2.081       .  S
Cu640       N642   2.059       .  S
Cu640       N648   2.060       .  S
N641        N642   1.321       .  A
N641        C645   1.346       .  A
N642        C643   1.342       .  A
C643        C644   1.381       .  A
C643        H646   1.082       .  S
C644        C645   1.387       .  A
C644       C1496   1.473       .  S
C645        H647   1.081       .  S
N648        N649   1.322       .  A
N648        C652   1.343       .  A
N649        C650   1.346       .  A
C650        C651   1.387       .  A
C650        H653   1.082       .  S
C651        C652   1.381       .  A
C651       C1512   1.473       .  S
C652        H654   1.082       .  S
O655       Cu663   2.007       .  S
O655        C665   1.277       .  A
O656       Cu663   2.006   1_565  S
O656        C666   1.277       .  A
O657       Cu663   2.010       .  S
O657        C667   1.278       .  A
O658       Cu663   2.009   1_565  S
O658        C668   1.278       .  A
O659       Cu664   2.008   1_565  S
O659        C668   1.277       .  A
O660       Cu664   2.010       .  S
O660        C667   1.278       .  A
O661       Cu664   2.021   1_565  S
O661        C666   1.279       .  A
O662       Cu664   2.019       .  S
O662        C665   1.279       .  A
Cu663      Cu664   2.374       .  S
C665       C1467   1.475       .  S
C666       C1483   1.475       .  S
C667       C1544   1.472       .  S
C668       C1531   1.471       .  S
N669        N670   1.321       .  A
N669        C673   1.345       .  A
N669       Cu677   2.069       .  S
N670        C671   1.344       .  A
N670       Cu676   2.073       .  S
C671        C672   1.385       .  A
C671        H674   1.081       .  S
C672        C673   1.383       .  A
C672       C1432   1.474       .  S
C673        H675   1.082       .  S
Cu676       N679   2.074       .  S
Cu677       N687   2.070       .  S
Cu678       N680   2.069       .  S
Cu678       N686   2.069       .  S
N679        N680   1.322       .  A
N679        C683   1.344       .  A
N680        C681   1.344       .  A
C681        C682   1.384       .  A
C681        H684   1.081       .  S
C682        C683   1.384       .  A
C682       C1451   1.474       .  S
C683        H685   1.082       .  S
N686        N687   1.322       .  A
N686        C690   1.345       .  A
N687        C688   1.343       .  A
C688        C689   1.384       .  A
C688        H691   1.082       .  S
C689        C690   1.383       .  A
C689       C1992   1.473       .  S
C690        H692   1.082       .  S
N693        N694   1.322       .  A
N693        C697   1.344       .  A
N693       Cu701   2.071       .  S
N694        C695   1.344       .  A
N694       Cu700   2.072       .  S
C695        C696   1.385       .  A
C695        H698   1.081       .  S
C696        C697   1.383       .  A
C696       C1419   1.474       .  S
C697        H699   1.082       .  S
Cu700       N703   2.072       .  S
Cu701       N711   2.071       .  S
Cu702       N704   2.065       .  S
Cu702       N710   2.065       .  S
N703        N704   1.322       .  A
N703        C707   1.344       .  A
N704        C705   1.343       .  A
C705        C706   1.382       .  A
C705        H708   1.082       .  S
C706        C707   1.385       .  A
C706       C1400   1.472       .  S
C707        H709   1.082       .  S
N710        N711   1.321       .  A
N710        C714   1.343       .  A
N711        C712   1.344       .  A
C712        C713   1.385       .  A
C712        H715   1.081       .  S
C713        C714   1.383       .  A
C713       C1800   1.472       .  S
C714        H716   1.082       .  S
N717        N718   1.322       .  A
N717        C721   1.343       .  A
N717       Cu725   2.067       .  S
N718        C719   1.343       .  A
N718       Cu724   2.068       .  S
C719        C720   1.384       .  A
C719        H722   1.082       .  S
C720        C721   1.382       .  A
C720       C1387   1.471       .  S
C721        H723   1.082       .  S
Cu724       N727   2.069       .  S
Cu725       N735   2.068       .  S
Cu726       N728   2.069       .  S
Cu726       N734   2.069       .  S
N727        N728   1.321       .  A
N727        C731   1.345       .  A
N728        C729   1.343       .  A
C729        C730   1.385       .  A
C729        H732   1.082       .  S
C730        C731   1.384       .  A
C730       C1368   1.474       .  S
C731        H733   1.082       .  S
N734        N735   1.321       .  A
N734        C738   1.344       .  A
N735        C736   1.343       .  A
C736        C737   1.385       .  A
C736        H739   1.082       .  S
C737        C738   1.383       .  A
C737       C1352   1.473       .  S
C738        H740   1.082       .  S
N741        N742   1.323       .  A
N741        C745   1.344       .  A
N741       Cu749   2.069       .  S
N742        C743   1.345       .  A
N742       Cu748   2.080       .  S
C743        C744   1.386       .  A
C743        H746   1.082       .  S
C744        C745   1.382       .  A
C744       C1336   1.475       .  S
C745        H747   1.082       .  S
Cu748       N751   2.080       .  S
Cu749       N759   2.069       .  S
Cu750       N752   2.073       .  S
Cu750       N758   2.073       .  S
N751        N752   1.322       .  A
N751        C755   1.347       .  A
N752        C753   1.343       .  A
C753        C754   1.383       .  A
C753        H756   1.082       .  S
C754        C755   1.387       .  A
C754       C2075   1.476       .  S
C755        H757   1.082       .  S
N758        N759   1.321       .  A
N758        C762   1.344       .  A
N759        C760   1.345       .  A
C760        C761   1.385       .  A
C760        H763   1.082       .  S
C761        C762   1.384       .  A
C761       C1688   1.475       .  S
C762        H764   1.082       .  S
N765        N766   1.321       .  A
N765        C769   1.344       .  A
N765       Cu773   2.070       .  S
N766        C767   1.345       .  A
N766       Cu772   2.072       .  S
C767        C768   1.385       .  A
C767        H770   1.082       .  S
C768        C769   1.386       .  A
C768       C1307   1.476       .  S
C769        H771   1.082       .  S
Cu772       N775   2.072       .  S
Cu773       N783   2.070       .  S
Cu774       N776   2.069       .  S
Cu774       N782   2.069       .  S
N775        N776   1.323       .  A
N775        C779   1.343       .  A
N776        C777   1.344       .  A
C777        C778   1.384       .  A
C777        H780   1.082       .  S
C778        C779   1.383       .  A
C778       C1323   1.472       .  S
C779        H781   1.082       .  S
N782        N783   1.322       .  A
N782        C786   1.346       .  A
N783        C784   1.342       .  A
C784        C785   1.382       .  A
C784        H787   1.083       .  S
C785        C786   1.385       .  A
C785       C1291   1.473       .  S
C786        H788   1.082       .  S
O789       Cu797   2.011       .  S
O789        C799   1.278   1_455  A
O790       Cu797   2.012       .  S
O790        C800   1.278       .  A
O791       Cu797   2.011   1_655  S
O791        C801   1.278       .  A
O792       Cu797   2.004       .  S
O792        C802   1.277       .  A
O793       Cu798   2.011       .  S
O793        C802   1.278       .  A
O794       Cu798   2.008       .  S
O794        C801   1.278   1_455  A
O795       Cu798   2.004       .  S
O795        C800   1.277       .  A
O796       Cu798   2.001       .  S
O796        C799   1.276   1_455  A
Cu797      Cu798   2.375       .  S
C799       C1288   1.469       .  S
C800       C1272   1.471       .  S
C801       C1339   1.472       .  S
C802       C1355   1.470       .  S
N803        N804   1.323       .  A
N803        C807   1.345       .  A
N803       Cu811   2.080       .  S
N804        C805   1.344       .  A
N804       Cu810   2.064       .  S
C805        C806   1.382       .  A
C805        H808   1.082       .  S
C806        C807   1.385       .  A
C806       C1240   1.472       .  S
C807        H809   1.082       .  S
Cu810       N813   2.064       .  S
Cu811       N821   2.081       .  S
Cu812       N814   2.068       .  S
Cu812       N820   2.069       .  S
N813        N814   1.321       .  A
N813        C817   1.343       .  A
N814        C815   1.343       .  A
C815        C816   1.382       .  A
C815        H818   1.082       .  S
C816        C817   1.384       .  A
C816       C1256   1.470       .  S
C817        H819   1.082       .  S
N820        N821   1.321       .  A
N820        C824   1.343       .  A
N821        C822   1.348       .  A
C822        C823   1.388       .  A
C822        H825   1.081       .  S
C823        C824   1.384       .  A
C823       C2171   1.478       .  S
C824        H826   1.082       .  S
N827        N828   1.322       .  A
N827        C831   1.344       .  A
N827       Cu835   2.074       .  S
N828        C829   1.346       .  A
N828       Cu834   2.077       .  S
C829        C830   1.386       .  A
C829        H832   1.082       .  S
C830        C831   1.383       .  A
C830       C1275   1.475       .  S
C831        H833   1.082       .  S
Cu834       N837   2.077       .  S
Cu835       N845   2.074       .  S
Cu836       N838   2.071       .  S
Cu836       N844   2.071       .  S
N837        N838   1.322       .  A
N837        C841   1.346       .  A
N838        C839   1.344       .  A
C839        C840   1.383       .  A
C839        H842   1.082       .  S
C840        C841   1.386       .  A
C840       C1224   1.475       .  S
C841        H843   1.082       .  S
N844        N845   1.321       .  A
N844        C848   1.345       .  A
N845        C846   1.345       .  A
C846        C847   1.385       .  A
C846        H849   1.082       .  S
C847        C848   1.385       .  A
C847       C1464   1.476       .  S
C848        H850   1.081       .  S
N851        N852   1.322       .  A
N851        C855   1.341       .  A
N851       Cu859   2.066       .  S
N852        C853   1.345       .  A
N852       Cu858   2.070       .  S
C853        C854   1.384       .  A
C853        H856   1.082       .  S
C854        C855   1.383       .  A
C854       C1192   1.472       .  S
C855        H857   1.082       .  S
Cu858       N861   2.071       .  S
Cu859       N869   2.065       .  S
Cu860       N862   2.065       .  S
Cu860       N868   2.064       .  S
N861        N862   1.321       .  A
N861        C865   1.344       .  A
N862        C863   1.344       .  A
C863        C864   1.382       .  A
C863        H866   1.082       .  S
C864        C865   1.385       .  A
C864       C1211   1.472       .  S
C865        H867   1.082       .  S
N868        N869   1.321       .  A
N868        C872   1.342       .  A
N869        C870   1.344       .  A
C870        C871   1.384       .  A
C870        H873   1.082       .  S
C871        C872   1.384       .  A
C871       C1179   1.471       .  S
C872        H874   1.082       .  S
N875        N876   1.321       .  A
N875        C879   1.343       .  A
N875       Cu883   2.068       .  S
N876        C877   1.342       .  A
N876       Cu882   2.057       .  S
C877        C878   1.381       .  A
C877        H880   1.082       .  S
C878        C879   1.385       .  A
C878       C1979   1.469       .  S
C879        H881   1.082       .  S
Cu882       N885   2.058       .  S
Cu883       N893   2.068       .  S
Cu884       N886   2.077       .  S
Cu884       N892   2.078       .  S
N885        N886   1.321       .  A
N885        C889   1.342       .  A
N886        C887   1.345       .  A
C887        C888   1.386       .  A
C887        H890   1.082       .  S
C888        C889   1.381       .  A
C888       C1160   1.471       .  S
C889        H891   1.082       .  S
N892        N893   1.322       .  A
N892        C896   1.346       .  A
N893        C894   1.344       .  A
C894        C895   1.383       .  A
C894        H897   1.083       .  S
C895        C896   1.386       .  A
C895       C1787   1.475       .  S
C896        H898   1.081       .  S
N899        N900   1.321       .  A
N899        C903   1.345       .  A
N899       Cu907   2.074       .  S
N900        C901   1.343       .  A
N900       Cu906   2.066       .  S
C901        C902   1.382       .  A
C901        H904   1.082       .  S
C902        C903   1.386       .  A
C902       C1128   1.474       .  S
C903        H905   1.081       .  S
Cu906       N909   2.067       .  S
Cu907       N917   2.075       .  S
Cu908       N910   2.071       .  S
Cu908       N916   2.071       .  S
N909        N910   1.321       .  A
N909        C913   1.343       .  A
N910        C911   1.345       .  A
C911        C912   1.384       .  A
C911        H914   1.082       .  S
C912        C913   1.384       .  A
C912       C1144   1.474       .  S
C913        H915   1.082       .  S
N916        N917   1.323       .  A
N916        C920   1.344       .  A
N917        C918   1.344       .  A
C918        C919   1.384       .  A
C918        H921   1.082       .  S
C919        C920   1.384       .  A
C919       C1112   1.474       .  S
C920        H922   1.082       .  S
O923       Cu931   2.019   1_554  S
O923        C933   1.279       .  A
O924       Cu931   2.016       .  S
O924        C934   1.279       .  A
O925       Cu931   1.998   1_554  S
O925        C935   1.276       .  A
O926       Cu931   1.995       .  S
O926        C936   1.276       .  A
O927       Cu932   2.010       .  S
O927        C936   1.278       .  A
O928       Cu932   2.008   1_554  S
O928        C935   1.278       .  A
O929       Cu932   1.999       .  S
O929        C934   1.276       .  A
O930       Cu932   1.999   1_554  S
O930        C933   1.276       .  A
Cu931      Cu932   2.375       .  S
C933       C1227   1.471       .  S
C934       C1115   1.470       .  S
C935       C1176   1.467       .  S
C936       C1163   1.467       .  S
O937       Cu945   2.019       .  S
O937        C947   1.279       .  A
O938       Cu945   2.013       .  S
O938        C948   1.279       .  A
O939       Cu945   1.987       .  S
O939        C949   1.275       .  A
O940       Cu945   1.991       .  S
O940        C950   1.275       .  A
O941       Cu946   2.011       .  S
O941        C950   1.278       .  A
O942       Cu946   2.013       .  S
O942        C949   1.279       .  A
O943       Cu946   1.992       .  S
O943        C948   1.275       .  A
O944       Cu946   1.991       .  S
O944        C947   1.276       .  A
Cu945      Cu946   2.376       .  S
C947       C1195   1.468       .  S
C948       C1243   1.467       .  S
C949       C1384   1.465       .  S
C950       C1624   1.465       .  S
O951       Cu959   2.013       .  S
O951        C961   1.279       .  A
O952       Cu959   2.013       .  S
O952        C962   1.279       .  A
O953       Cu959   1.999       .  S
O953        C963   1.276       .  A
O954       Cu959   2.002       .  S
O954        C964   1.277       .  A
O955       Cu960   2.019       .  S
O955        C964   1.279       .  A
O956       Cu960   2.017       .  S
O956        C963   1.279       .  A
O957       Cu960   1.997       .  S
O957        C962   1.276       .  A
O958       Cu960   1.994       .  S
O958        C961   1.276       .  A
Cu959      Cu960   2.375       .  S
C961       C1563   1.467       .  S
C962       C1656   1.468       .  S
C963       C1208   1.470       .  S
C964       C1595   1.473       .  S
O965       Cu973   2.013       .  S
O965        C975   1.279       .  A
O966       Cu973   2.016       .  S
O966        C976   1.279       .  A
O967       Cu973   2.004       .  S
O967        C977   1.277       .  A
O968       Cu973   2.003       .  S
O968        C978   1.277       .  A
O969       Cu974   2.010       .  S
O969        C978   1.278       .  A
O970       Cu974   2.008       .  S
O970        C977   1.278       .  A
O971       Cu974   2.004       .  S
O971        C976   1.277       .  A
O972       Cu974   1.998       .  S
O972        C975   1.276       .  A
Cu973      Cu974   2.375       .  S
C975       C1403   1.468       .  S
C976       C1576   1.472       .  S
C977       C1435   1.469       .  S
C978       C1371   1.469       .  S
O979       Cu987   1.996       .  S
O979        C989   1.276       .  A
O980       Cu987   2.002       .  S
O980        C990   1.277       .  A
O981       Cu987   1.993       .  S
O981        C991   1.276       .  A
O982       Cu987   1.995       .  S
O982        C992   1.276       .  A
O983       Cu988   2.003       .  S
O983        C992   1.277       .  A
O984       Cu988   2.006       .  S
O984        C991   1.278       .  A
O985       Cu988   2.007       .  S
O985        C990   1.278       .  A
O986       Cu988   2.008       .  S
O986        C989   1.278       .  A
Cu987      Cu988   2.377       .  S
C989       C2283   1.466       .  S
C990       C1515   1.469       .  S
C991       C2043   1.464       .  S
C992       C1259   1.464       .  S
O993      Cu1001   2.007       .  S
O993       C1003   1.277       .  A
O994      Cu1001   2.010       .  S
O994       C1004   1.278       .  A
O995      Cu1001   2.010       .  S
O995       C1005   1.278       .  A
O996      Cu1001   2.008       .  S
O996       C1006   1.278       .  A
O997      Cu1002   2.002       .  S
O997       C1006   1.276       .  A
O998      Cu1002   1.998       .  S
O998       C1005   1.276       .  A
O999      Cu1002   2.011       .  S
O999       C1004   1.278       .  A
O1000     Cu1002   2.006       .  S
O1000      C1003   1.278       .  A
Cu1001    Cu1002   2.375       .  S
C1003      C1848   1.469       .  S
C1004      C1608   1.473       .  S
C1005      C2315   1.468       .  S
C1006      C1320   1.469       .  S
O1007     Cu1015   2.009       .  S
O1007      C1017   1.279       .  A
O1008     Cu1015   2.015       .  S
O1008      C1018   1.279       .  A
O1009     Cu1015   2.005       .  S
O1009      C1019   1.277       .  A
O1010     Cu1015   2.004       .  S
O1010      C1020   1.277       .  A
O1011     Cu1016   2.011       .  S
O1011      C1020   1.278       .  A
O1012     Cu1016   2.011       .  S
O1012      C1019   1.278       .  A
O1013     Cu1016   1.996       .  S
O1013      C1018   1.276       .  A
O1014     Cu1016   1.999       .  S
O1014      C1017   1.276       .  A
Cu1015    Cu1016   2.375       .  S
C1017      C2264   1.467       .  S
C1018      C1147   1.469       .  S
C1019      C1931   1.471       .  S
C1020      C1416   1.470       .  S
O1021     Cu1029   2.010       .  S
O1021      C1031   1.278       .  A
O1022     Cu1029   2.008       .  S
O1022      C1032   1.278       .  A
O1023     Cu1029   2.005       .  S
O1023      C1033   1.277       .  A
O1024     Cu1029   2.004       .  S
O1024      C1034   1.277       .  A
O1025     Cu1030   2.021       .  S
O1025      C1034   1.279       .  A
O1026     Cu1030   2.020       .  S
O1026      C1033   1.280       .  A
O1027     Cu1030   2.004       .  S
O1027      C1032   1.277       .  A
O1028     Cu1030   2.006       .  S
O1028      C1031   1.278       .  A
Cu1029    Cu1030   2.374       .  S
C1031      C2235   1.472       .  S
C1032      C1675   1.469       .  S
C1033      C2328   1.474       .  S
C1034      C1304   1.474       .  S
O1035     Cu1043   2.008       .  S
O1035      C1045   1.277       .  A
O1036     Cu1043   2.008       .  S
O1036      C1046   1.278       .  A
O1037     Cu1043   2.001       .  S
O1037      C1047   1.277       .  A
O1038     Cu1043   2.000       .  S
O1038      C1048   1.277       .  A
O1039     Cu1044   2.011       .  S
O1039      C1048   1.278       .  A
O1040     Cu1044   2.012       .  S
O1040      C1047   1.278       .  A
O1041     Cu1044   2.001       .  S
O1041      C1046   1.277       .  A
O1042     Cu1044   2.005       .  S
O1042      C1045   1.278       .  A
Cu1043    Cu1044   2.375       .  S
C1045      C1448   1.470       .  S
C1046      C1739   1.468       .  S
C1047      C1131   1.469       .  S
C1048      C2299   1.469       .  S
O1049     Cu1057   2.009       .  S
O1049      C1059   1.277       .  A
O1050     Cu1057   2.011       .  S
O1050      C1060   1.278       .  A
O1051     Cu1057   2.009       .  S
O1051      C1061   1.278       .  A
O1052     Cu1057   2.011       .  S
O1052      C1062   1.278       .  A
O1053     Cu1058   2.003       .  S
O1053      C1062   1.277       .  A
O1054     Cu1058   2.009       .  S
O1054      C1061   1.278       .  A
O1055     Cu1058   2.000       .  S
O1055      C1060   1.276       .  A
O1056     Cu1058   2.001       .  S
O1056      C1059   1.277       .  A
Cu1057    Cu1058   2.375       .  S
C1059      C2123   1.469       .  S
C1060      C1643   1.468       .  S
C1061      C2347   1.472       .  S
C1062      C1499   1.470       .  S
O1063     Cu1071   2.010       .  S
O1063      C1073   1.278       .  A
O1064     Cu1071   2.008       .  S
O1064      C1074   1.278       .  A
O1065     Cu1071   1.995       .  S
O1065      C1075   1.276       .  A
O1066     Cu1071   1.998       .  S
O1066      C1076   1.276       .  A
O1067     Cu1072   2.012       .  S
O1067      C1076   1.278       .  A
O1068     Cu1072   2.012       .  S
O1068      C1075   1.278       .  A
O1069     Cu1072   2.000       .  S
O1069      C1074   1.276       .  A
O1070     Cu1072   1.999       .  S
O1070      C1073   1.277       .  A
Cu1071    Cu1072   2.376       .  S
C1073      C2539   1.469       .  S
C1074      C2136   1.467       .  S
C1075      C2587   1.467       .  S
C1076      C2251   1.469       .  S
O1077     Cu1085   2.006       .  S
O1077      C1087   1.277       .  A
O1078     Cu1085   2.003       .  S
O1078      C1088   1.277       .  A
O1079     Cu1085   2.007       .  S
O1079      C1089   1.278       .  A
O1080     Cu1085   2.009       .  S
O1080      C1090   1.277       .  A
O1081     Cu1086   2.007       .  S
O1081      C1090   1.278       .  A
O1082     Cu1086   2.006       .  S
O1082      C1089   1.276       .  A
O1083     Cu1086   2.020       .  S
O1083      C1088   1.279       .  A
O1084     Cu1086   2.019       .  S
O1084      C1087   1.279       .  A
Cu1085    Cu1086   2.374       .  S
C1087      C1755   1.474       .  S
C1088      C2520   1.473       .  S
C1089      C1867   1.469       .  S
C1090      C2635   1.472       .  S
O1091     Cu1099   2.013       .  S
O1091      C1101   1.278       .  A
O1092     Cu1099   2.015       .  S
O1092      C1102   1.279       .  A
O1093     Cu1099   2.012       .  S
O1093      C1103   1.278       .  A
O1094     Cu1099   2.017       .  S
O1094      C1104   1.279       .  A
O1095     Cu1100   1.996       .  S
O1095      C1104   1.276       .  A
O1096     Cu1100   1.997       .  S
O1096      C1103   1.276       .  A
O1097     Cu1100   1.992       .  S
O1097      C1102   1.276       .  A
O1098     Cu1100   1.998       .  S
O1098      C1101   1.277       .  A
Cu1099    Cu1100   2.375       .  S
C1101      C2619   1.469       .  S
C1102      C2059   1.467       .  S
C1103      C2571   1.468       .  S
C1104      C1947   1.469       .  S
C1105      C1110   1.387       .  A
C1105      C1106   1.400       .  A
C1105      S1111   1.705       .  A
C1106      C1107   1.401       .  A
C1106      H1117   1.083       .  S
C1107      C1116   1.370       .  A
C1107      C1108   1.387       .  A
C1108      C1109   1.401       .  A
C1108      S1114   1.706       .  A
C1109      C1110   1.402       .  A
C1109      H1118   1.083       .  S
C1110      C1113   1.370       .  A
S1111      C1112   1.723       .  A
C1112      C1113   1.387       .  A
C1113      H1119   1.083       .  S
S1114      C1115   1.724       .  A
C1115      C1116   1.385       .  A
C1116      H1120   1.083       .  S
C1121      C1126   1.387       .  A
C1121      C1122   1.402       .  A
C1121      S1127   1.706       .  A
C1122      C1123   1.403       .  A
C1122      H1133   1.081       .  S
C1123      C1132   1.371       .  A
C1123      C1124   1.387       .  A
C1124      C1125   1.400       .  A
C1124      S1130   1.704       .  A
C1125      C1126   1.401       .  A
C1125      H1134   1.081       .  S
C1126      C1129   1.369       .  A
S1127      C1128   1.724       .  A
C1128      C1129   1.386       .  A
C1129      H1135   1.081       .  S
S1130      C1131   1.722       .  A
C1131      C1132   1.387       .  A
C1132      H1136   1.082       .  S
C1137      C1142   1.386       .  A
C1137      C1138   1.403       .  A
C1137      S1143   1.708       .  A
C1138      C1139   1.403       .  A
C1138      H1149   1.083       .  S
C1139      C1148   1.372       .  A
C1139      C1140   1.387       .  A
C1140      C1141   1.398       .  A
C1140      S1146   1.702       .  A
C1141      C1142   1.399       .  A
C1141      H1150   1.083       .  S
C1142      C1145   1.367       .  A
S1143      C1144   1.725       .  A
C1144      C1145   1.386       .  A
C1145      H1151   1.083       .  S
S1146      C1147   1.722       .  A
C1147      C1148   1.387       .  A
C1148      H1152   1.083       .  S
C1153      C1158   1.387       .  A
C1153      C1154   1.399       .  A
C1153      S1159   1.703       .  A
C1154      C1155   1.400       .  A
C1154      H1165   1.083       .  S
C1155      C1164   1.367       .  A
C1155      C1156   1.387       .  A
C1156      C1157   1.400       .  A
C1156      S1162   1.706       .  A
C1157      C1158   1.401       .  A
C1157      H1166   1.083       .  S
C1158      C1161   1.368       .  A
S1159      C1160   1.723       .  A
C1160      C1161   1.386       .  A
C1161      H1167   1.082       .  S
S1162      C1163   1.722       .  A
C1163      C1164   1.386       .  A
C1164      H1168   1.083       .  S
C1169      C1174   1.387       .  A
C1169      C1170   1.399       .  A
C1169      S1175   1.704       .  A
C1170      C1171   1.401       .  A
C1170      H1181   1.083       .  S
C1171      C1180   1.367       .  A
C1171      C1172   1.387       .  A
C1172      C1173   1.400       .  A
C1172      S1178   1.705       .  A
C1173      C1174   1.401       .  A
C1173      H1182   1.083       .  S
C1174      C1177   1.368       .  A
S1175      C1176   1.722       .  A
C1176      C1177   1.385       .  A
C1177      H1183   1.083       .  S
S1178      C1179   1.723       .  A
C1179      C1180   1.386       .  A
C1180      H1184   1.082       .  S
C1185      C1190   1.386       .  A
C1185      C1186   1.403       .  A
C1185      S1191   1.709       .  A
C1186      C1187   1.404       .  A
C1186      H1197   1.083       .  S
C1187      C1196   1.372       .  A
C1187      C1188   1.387       .  A
C1188      C1189   1.396       .  A
C1188      S1194   1.700       .  A
C1189      C1190   1.397       .  A
C1189      H1198   1.084       .  S
C1190      C1193   1.364       .  A
S1191      C1192   1.725       .  A
C1192      C1193   1.384       .  A
C1193      H1199   1.083       .  S
S1194      C1195   1.721       .  A
C1195      C1196   1.387       .  A
C1196      H1200   1.083       .  S
C1201      C1206   1.387       .  A
C1201      C1202   1.399       .  A
C1201      S1207   1.703       .  A
C1202      C1203   1.399       .  A
C1202      H1213   1.083       .  S
C1203      C1212   1.367       .  A
C1203      C1204   1.386       .  A
C1204      C1205   1.403       .  A
C1204      S1210   1.707       .  A
C1205      C1206   1.403       .  A
C1205      H1214   1.083       .  S
C1206      C1209   1.372       .  A
S1207      C1208   1.722       .  A
C1208      C1209   1.387       .  A
C1209      H1215   1.083       .  S
S1210      C1211   1.725       .  A
C1211      C1212   1.385       .  A
C1212      H1216   1.082       .  S
C1217      C1222   1.387       .  A
C1217      C1218   1.402       .  A
C1217      S1223   1.706       .  A
C1218      C1219   1.403       .  A
C1218      H1229   1.083       .  S
C1219      C1228   1.372       .  A
C1219      C1220   1.387       .  A
C1220      C1221   1.400       .  A
C1220      S1226   1.704       .  A
C1221      C1222   1.401       .  A
C1221      H1230   1.083       .  S
C1222      C1225   1.370       .  A
S1223      C1224   1.724       .  A
C1224      C1225   1.386       .  A
C1225      H1231   1.082       .  S
S1226      C1227   1.723       .  A
C1227      C1228   1.387       .  A
C1228      H1232   1.083       .  S
C1233      C1238   1.387       .  A
C1233      C1234   1.401       .  A
C1233      S1239   1.705       .  A
C1234      C1235   1.401       .  A
C1234      H1245   1.083       .  S
C1235      C1244   1.369       .  A
C1235      C1236   1.387       .  A
C1236      C1237   1.399       .  A
C1236      S1242   1.703       .  A
C1237      C1238   1.400       .  A
C1237      H1246   1.083       .  S
C1238      C1241   1.368       .  A
S1239      C1240   1.724       .  A
C1240      C1241   1.385       .  A
C1241      H1247   1.082       .  S
S1242      C1243   1.722       .  A
C1243      C1244   1.385       .  A
C1244      H1248   1.083       .  S
C1249      C1254   1.387       .  A
C1249      C1250   1.400       .  A
C1249      S1255   1.705       .  A
C1250      C1251   1.401       .  A
C1250      H1261   1.083       .  S
C1251      C1260   1.368       .  A
C1251      C1252   1.387       .  A
C1252      C1253   1.397       .  A
C1252      S1258   1.702       .  A
C1253      C1254   1.399       .  A
C1253      H1262   1.084       .  S
C1254      C1257   1.365       .  A
S1255      C1256   1.724       .  A
C1256      C1257   1.385       .  A
C1257      H1263   1.083       .  S
S1258      C1259   1.720       .  A
C1259      C1260   1.385       .  A
C1260      H1264   1.083       .  S
C1265      C1270   1.387       .  A
C1265      C1266   1.402       .  A
C1265      S1271   1.708       .  A
C1266      C1267   1.403       .  A
C1266      H1277   1.082       .  S
C1267      C1276   1.371       .  A
C1267      C1268   1.387       .  A
C1268      C1269   1.400       .  A
C1268      S1274   1.705       .  A
C1269      C1270   1.401       .  A
C1269      H1278   1.082       .  S
C1270      C1273   1.369       .  A
S1271      C1272   1.723       .  A
C1272      C1273   1.386       .  A
C1273      H1279   1.083       .  S
S1274      C1275   1.723       .  A
C1275      C1276   1.388       .  A
C1276      H1280   1.082       .  S
C1281      C1286   1.387       .  A
C1281      C1282   1.402       .  A
C1281      S1287   1.706       .  A
C1282      C1283   1.402       .  A
C1282      H1293   1.082       .  S
C1283      C1292   1.371       .  A
C1283      C1284   1.387       .  A
C1284      C1285   1.399       .  A
C1284      S1290   1.702       .  A
C1285      C1286   1.400       .  A
C1285      H1294   1.082       .  S
C1286      C1289   1.369       .  A
S1287      C1288   1.723       .  A
C1288      C1289   1.385       .  A
C1289      H1295   1.082       .  S
S1290      C1291   1.722       .  A
C1291      C1292   1.387       .  A
C1292      H1296   1.082       .  S
C1297      C1302   1.387       .  A
C1297      C1298   1.401       .  A
C1297      S1303   1.705       .  A
C1298      C1299   1.401       .  A
C1298      H1309   1.083       .  S
C1299      C1308   1.370       .  A
C1299      C1300   1.386       .  A
C1300      C1301   1.403       .  A
C1300      S1306   1.708       .  A
C1301      C1302   1.404       .  A
C1301      H1310   1.083       .  S
C1302      C1305   1.373       .  A
S1303      C1304   1.723       .  A
C1304      C1305   1.388       .  A
C1305      H1311   1.083       .  S
S1306      C1307   1.725       .  A
C1307      C1308   1.387       .  A
C1308      H1312   1.082       .  S
C1313      C1318   1.387       .  A
C1313      C1314   1.401       .  A
C1313      S1319   1.706       .  A
C1314      C1315   1.402       .  A
C1314      H1325   1.083       .  S
C1315      C1324   1.369       .  A
C1315      C1316   1.387       .  A
C1316      C1317   1.399       .  A
C1316      S1322   1.704       .  A
C1317      C1318   1.400       .  A
C1317      H1326   1.083       .  S
C1318      C1321   1.368       .  A
S1319      C1320   1.723       .  A
C1320      C1321   1.385       .  A
C1321      H1327   1.083       .  S
S1322      C1323   1.722       .  A
C1323      C1324   1.387       .  A
C1324      H1328   1.082       .  S
C1329      C1334   1.386       .  A
C1329      C1330   1.403       .  A
C1329      S1335   1.708       .  A
C1330      C1331   1.404       .  A
C1330      H1341   1.083       .  S
C1331      C1340   1.372       .  A
C1331      C1332   1.387       .  A
C1332      C1333   1.399       .  A
C1332      S1338   1.704       .  A
C1333      C1334   1.400       .  A
C1333      H1342   1.083       .  S
C1334      C1337   1.368       .  A
S1335      C1336   1.726       .  A
C1336      C1337   1.385       .  A
C1337      H1343   1.082       .  S
S1338      C1339   1.721       .  A
C1339      C1340   1.388       .  A
C1340      H1344   1.083       .  S
C1345      C1350   1.386       .  A
C1345      C1346   1.403       .  A
C1345      S1351   1.708       .  A
C1346      C1347   1.404       .  A
C1346      H1357   1.083       .  S
C1347      C1356   1.372       .  A
C1347      C1348   1.387       .  A
C1348      C1349   1.398       .  A
C1348      S1354   1.702       .  A
C1349      C1350   1.399       .  A
C1349      H1358   1.084       .  S
C1350      C1353   1.367       .  A
S1351      C1352   1.725       .  A
C1352      C1353   1.385       .  A
C1353      H1359   1.083       .  S
S1354      C1355   1.721       .  A
C1355      C1356   1.388       .  A
C1356      H1360   1.083       .  S
C1361      C1366   1.386       .  A
C1361      C1362   1.402       .  A
C1361      S1367   1.708       .  A
C1362      C1363   1.403       .  A
C1362      H1373   1.083       .  S
C1363      C1372   1.371       .  A
C1363      C1364   1.387       .  A
C1364      C1365   1.399       .  A
C1364      S1370   1.704       .  A
C1365      C1366   1.400       .  A
C1365      H1374   1.083       .  S
C1366      C1369   1.367       .  A
S1367      C1368   1.724       .  A
C1368      C1369   1.386       .  A
C1369      H1375   1.082       .  S
S1370      C1371   1.721       .  A
C1371      C1372   1.387       .  A
C1372      H1376   1.083       .  S
C1377      C1382   1.388       .  A
C1377      C1378   1.398       .  A
C1377      S1383   1.701       .  A
C1378      C1379   1.399       .  A
C1378      H1389   1.083       .  S
C1379      C1388   1.367       .  A
C1379      C1380   1.387       .  A
C1380      C1381   1.400       .  A
C1380      S1386   1.704       .  A
C1381      C1382   1.401       .  A
C1381      H1390   1.083       .  S
C1382      C1385   1.369       .  A
S1383      C1384   1.722       .  A
C1384      C1385   1.385       .  A
C1385      H1391   1.083       .  S
S1386      C1387   1.723       .  A
C1387      C1388   1.385       .  A
C1388      H1392   1.082       .  S
C1393      C1398   1.387       .  A
C1393      C1394   1.400       .  A
C1393      S1399   1.704       .  A
C1394      C1395   1.401       .  A
C1394      H1405   1.083       .  S
C1395      C1404   1.368       .  A
C1395      C1396   1.387       .  A
C1396      C1397   1.400       .  A
C1396      S1402   1.705       .  A
C1397      C1398   1.401       .  A
C1397      H1406   1.083       .  S
C1398      C1401   1.368       .  A
S1399      C1400   1.723       .  A
C1400      C1401   1.386       .  A
C1401      H1407   1.082       .  S
S1402      C1403   1.723       .  A
C1403      C1404   1.385       .  A
C1404      H1408   1.083       .  S
C1409      C1414   1.387       .  A
C1409      C1410   1.400       .  A
C1409      S1415   1.706       .  A
C1410      C1411   1.401       .  A
C1410      H1421   1.081       .  S
C1411      C1420   1.369       .  A
C1411      C1412   1.386       .  A
C1412      C1413   1.401       .  A
C1412      S1418   1.706       .  A
C1413      C1414   1.403       .  A
C1413      H1422   1.081       .  S
C1414      C1417   1.370       .  A
S1415      C1416   1.722       .  A
C1416      C1417   1.387       .  A
C1417      H1423   1.082       .  S
S1418      C1419   1.724       .  A
C1419      C1420   1.387       .  A
C1420      H1424   1.081       .  S
C1425      C1430   1.386       .  A
C1425      C1426   1.402       .  A
C1425      S1431   1.707       .  A
C1426      C1427   1.403       .  A
C1426      H1437   1.082       .  S
C1427      C1436   1.370       .  A
C1427      C1428   1.387       .  A
C1428      C1429   1.399       .  A
C1428      S1434   1.705       .  A
C1429      C1430   1.400       .  A
C1429      H1438   1.082       .  S
C1430      C1433   1.368       .  A
S1431      C1432   1.725       .  A
C1432      C1433   1.386       .  A
C1433      H1439   1.082       .  S
S1434      C1435   1.721       .  A
C1435      C1436   1.387       .  A
C1436      H1440   1.083       .  S
C1441      C1446   1.387       .  A
C1441      C1442   1.402       .  A
C1441      S1447   1.707       .  A
C1442      C1443   1.403       .  A
C1442      H1453   1.082       .  S
C1443      C1452   1.370       .  A
C1443      C1444   1.387       .  A
C1444      C1445   1.400       .  A
C1444      S1450   1.705       .  A
C1445      C1446   1.401       .  A
C1445      H1454   1.082       .  S
C1446      C1449   1.368       .  A
S1447      C1448   1.723       .  A
C1448      C1449   1.386       .  A
C1449      H1455   1.083       .  S
S1450      C1451   1.723       .  A
C1451      C1452   1.388       .  A
C1452      H1456   1.082       .  S
C1457      C1462   1.386       .  A
C1457      C1458   1.401       .  A
C1457      S1463   1.706       .  A
C1458      C1459   1.402       .  A
C1458      H1469   1.081       .  S
C1459      C1468   1.370       .  A
C1459      C1460   1.386       .  A
C1460      C1461   1.403       .  A
C1460      S1466   1.710       .  A
C1461      C1462   1.404       .  A
C1461      H1470   1.081       .  S
C1462      C1465   1.371       .  A
S1463      C1464   1.724       .  A
C1464      C1465   1.388       .  A
C1465      H1471   1.081       .  S
S1466      C1467   1.724       .  A
C1467      C1468   1.387       .  A
C1468      H1472   1.082       .  S
C1473      C1478   1.386       .  A
C1473      C1474   1.402       .  A
C1473      S1479   1.705       .  A
C1474      C1475   1.402       .  A
C1474      H1485   1.082       .  S
C1475      C1484   1.373       .  A
C1475      C1476   1.387       .  A
C1476      C1477   1.403       .  A
C1476      S1482   1.707       .  A
C1477      C1478   1.403       .  A
C1477      H1486   1.082       .  S
C1478      C1481   1.373       .  A
S1479      C1480   1.724       .  A
C1480      C1481   1.388       .  A
C1481      H1487   1.082       .  S
S1482      C1483   1.725       .  A
C1483      C1484   1.387       .  A
C1484      H1488   1.082       .  S
C1489      C1494   1.387       .  A
C1489      C1490   1.402       .  A
C1489      S1495   1.705       .  A
C1490      C1491   1.402       .  A
C1490      H1501   1.082       .  S
C1491      C1500   1.371       .  A
C1491      C1492   1.387       .  A
C1492      C1493   1.400       .  A
C1492      S1498   1.703       .  A
C1493      C1494   1.400       .  A
C1493      H1502   1.082       .  S
C1494      C1497   1.369       .  A
S1495      C1496   1.725       .  A
C1496      C1497   1.385       .  A
C1497      H1503   1.082       .  S
S1498      C1499   1.722       .  A
C1499      C1500   1.387       .  A
C1500      H1504   1.083       .  S
C1505      C1510   1.387       .  A
C1505      C1506   1.401       .  A
C1505      S1511   1.705       .  A
C1506      C1507   1.402       .  A
C1506      H1517   1.082       .  S
C1507      C1516   1.369       .  A
C1507      C1508   1.387       .  A
C1508      C1509   1.400       .  A
C1508      S1514   1.706       .  A
C1509      C1510   1.401       .  A
C1509      H1518   1.082       .  S
C1510      C1513   1.369       .  A
S1511      C1512   1.725       .  A
C1512      C1513   1.386       .  A
C1513      H1519   1.082       .  S
S1514      C1515   1.722       .  A
C1515      C1516   1.386       .  A
C1516      H1520   1.083       .  S
C1521      C1526   1.387       .  A
C1521      C1522   1.401       .  A
C1521      S1527   1.705       .  A
C1522      C1523   1.402       .  A
C1522      H1533   1.083       .  S
C1523      C1532   1.370       .  A
C1523      C1524   1.387       .  A
C1524      C1525   1.402       .  A
C1524      S1530   1.707       .  A
C1525      C1526   1.402       .  A
C1525      H1534   1.083       .  S
C1526      C1529   1.371       .  A
S1527      C1528   1.724       .  A
C1528      C1529   1.387       .  A
C1529      H1535   1.082       .  S
S1530      C1531   1.723       .  A
C1531      C1532   1.386       .  A
C1532      H1536   1.083       .  S
C1537      C1542   1.387       .  A
C1537      C1538   1.401       .  A
C1537      S1543   1.707       .  A
C1538      C1539   1.402       .  A
C1538      H1549   1.082       .  S
C1539      C1548   1.371       .  A
C1539      C1540   1.387       .  A
C1540      C1541   1.402       .  A
C1540      S1546   1.706       .  A
C1541      C1542   1.402       .  A
C1541      H1550   1.082       .  S
C1542      C1545   1.371       .  A
S1543      C1544   1.723       .  A
C1544      C1545   1.387       .  A
C1545      H1551   1.083       .  S
S1546      C1547   1.724       .  A
C1547      C1548   1.387       .  A
C1548      H1552   1.082       .  S
C1553      C1558   1.387       .  A
C1553      C1554   1.401       .  A
C1553      S1559   1.705       .  A
C1554      C1555   1.401       .  A
C1554      H1565   1.083       .  S
C1555      C1564   1.370       .  A
C1555      C1556   1.387       .  A
C1556      C1557   1.399       .  A
C1556      S1562   1.703       .  A
C1557      C1558   1.400       .  A
C1557      H1566   1.084       .  S
C1558      C1561   1.368       .  A
S1559      C1560   1.724       .  A
C1560      C1561   1.385       .  A
C1561      H1567   1.083       .  S
S1562      C1563   1.722       .  A
C1563      C1564   1.385       .  A
C1564      H1568   1.083       .  S
C1569      C1574   1.387       .  A
C1569      C1570   1.401       .  A
C1569      S1575   1.705       .  A
C1570      C1571   1.402       .  A
C1570      H1581   1.083       .  S
C1571      C1580   1.371       .  A
C1571      C1572   1.386       .  A
C1572      C1573   1.403       .  A
C1572      S1578   1.707       .  A
C1573      C1574   1.403       .  A
C1573      H1582   1.083       .  S
C1574      C1577   1.373       .  A
S1575      C1576   1.723       .  A
C1576      C1577   1.388       .  A
C1577      H1583   1.083       .  S
S1578      C1579   1.724       .  A
C1579      C1580   1.388       .  A
C1580      H1584   1.082       .  S
C1585      C1590   1.387       .  A
C1585      C1586   1.401       .  A
C1585      S1591   1.705       .  A
C1586      C1587   1.402       .  A
C1586      H1597   1.082       .  S
C1587      C1596   1.370       .  A
C1587      C1588   1.387       .  A
C1588      C1589   1.403       .  A
C1588      S1594   1.709       .  A
C1589      C1590   1.404       .  A
C1589      H1598   1.082       .  S
C1590      C1593   1.372       .  A
S1591      C1592   1.724       .  A
C1592      C1593   1.388       .  A
C1593      H1599   1.082       .  S
S1594      C1595   1.723       .  A
C1595      C1596   1.387       .  A
C1596      H1600   1.083       .  S
C1601      C1606   1.387       .  A
C1601      C1602   1.403       .  A
C1601      S1607   1.709       .  A
C1602      C1603   1.404       .  A
C1602      H1613   1.083       .  S
C1603      C1612   1.372       .  A
C1603      C1604   1.386       .  A
C1604      C1605   1.401       .  A
C1604      S1610   1.706       .  A
C1605      C1606   1.402       .  A
C1605      H1614   1.083       .  S
C1606      C1609   1.370       .  A
S1607      C1608   1.724       .  A
C1608      C1609   1.387       .  A
C1609      H1615   1.083       .  S
S1610      C1611   1.724       .  A
C1611      C1612   1.388       .  A
C1612      H1616   1.082       .  S
C1617      C1622   1.387       .  A
C1617      C1618   1.398       .  A
C1617      S1623   1.702       .  A
C1618      C1619   1.400       .  A
C1618      H1629   1.083       .  S
C1619      C1628   1.367       .  A
C1619      C1620   1.387       .  A
C1620      C1621   1.400       .  A
C1620      S1626   1.704       .  A
C1621      C1622   1.401       .  A
C1621      H1630   1.083       .  S
C1622      C1625   1.368       .  A
S1623      C1624   1.722       .  A
C1624      C1625   1.385       .  A
C1625      H1631   1.083       .  S
S1626      C1627   1.723       .  A
C1627      C1628   1.385       .  A
C1628      H1632   1.083       .  S
C1633      C1638   1.387       .  A
C1633      C1634   1.400       .  A
C1633      S1639   1.704       .  A
C1634      C1635   1.401       .  A
C1634      H1645   1.082       .  S
C1635      C1644   1.369       .  A
C1635      C1636   1.387       .  A
C1636      C1637   1.400       .  A
C1636      S1642   1.704       .  A
C1637      C1638   1.400       .  A
C1637      H1646   1.082       .  S
C1638      C1641   1.368       .  A
S1639      C1640   1.724       .  A
C1640      C1641   1.385       .  A
C1641      H1647   1.082       .  S
S1642      C1643   1.722       .  A
C1643      C1644   1.386       .  A
C1644      H1648   1.082       .  S
C1649      C1654   1.387       .  A
C1649      C1650   1.401       .  A
C1649      S1655   1.705       .  A
C1650      C1651   1.402       .  A
C1650      H1661   1.084       .  S
C1651      C1660   1.370       .  A
C1651      C1652   1.387       .  A
C1652      C1653   1.399       .  A
C1652      S1658   1.703       .  A
C1653      C1654   1.400       .  A
C1653      H1662   1.083       .  S
C1654      C1657   1.369       .  A
S1655      C1656   1.723       .  A
C1656      C1657   1.385       .  A
C1657      H1663   1.083       .  S
S1658      C1659   1.723       .  A
C1659      C1660   1.387       .  A
C1660      H1664   1.084       .  S
C1665      C1670   1.386       .  A
C1665      C1666   1.402       .  A
C1665      S1671   1.708       .  A
C1666      C1667   1.403       .  A
C1666      H1677   1.084       .  S
C1667      C1676   1.370       .  A
C1667      C1668   1.387       .  A
C1668      C1669   1.397       .  A
C1668      S1674   1.704       .  A
C1669      C1670   1.399       .  A
C1669      H1678   1.084       .  S
C1670      C1673   1.365       .  A
S1671      C1672   1.724       .  A
C1672      C1673   1.385       .  A
C1673      H1679   1.083       .  S
S1674      C1675   1.721       .  A
C1675      C1676   1.387       .  A
C1676      H1680   1.084       .  S
C1681      C1686   1.387       .  A
C1681      C1682   1.402       .  A
C1681      S1687   1.706       .  A
C1682      C1683   1.402       .  A
C1682      H1693   1.083       .  S
C1683      C1692   1.372       .  A
C1683      C1684   1.387       .  A
C1684      C1685   1.402       .  A
C1684      S1690   1.705       .  A
C1685      C1686   1.402       .  A
C1685      H1694   1.083       .  S
C1686      C1689   1.371       .  A
S1687      C1688   1.724       .  A
C1688      C1689   1.387       .  A
C1689      H1695   1.082       .  S
S1690      C1691   1.724       .  A
C1691      C1692   1.386       .  A
C1692      H1696   1.083       .  S
C1697      C1702   1.387       .  A
C1697      C1698   1.400       .  A
C1697      S1703   1.705       .  A
C1698      C1699   1.401       .  A
C1698      H1709   1.083       .  S
C1699      C1708   1.368       .  A
C1699      C1700   1.387       .  A
C1700      C1701   1.398       .  A
C1700      S1706   1.703       .  A
C1701      C1702   1.400       .  A
C1701      H1710   1.083       .  S
C1702      C1705   1.366       .  A
S1703      C1704   1.723       .  A
C1704      C1705   1.385       .  A
C1705      H1711   1.082       .  S
S1706      C1707   1.722       .  A
C1707      C1708   1.384       .  A
C1708      H1712   1.083       .  S
C1713      C1718   1.387       .  A
C1713      C1714   1.400       .  A
C1713      S1719   1.709       .  A
C1714      C1715   1.402       .  A
C1714      H1725   1.084       .  S
C1715      C1724   1.367       .  A
C1715      C1716   1.386       .  A
C1716      C1717   1.401       .  A
C1716      S1722   1.709       .  A
C1717      C1718   1.403       .  A
C1717      H1726   1.084       .  S
C1718      C1721   1.368       .  A
S1719      C1720   1.722       .  A
C1720      C1721   1.387       .  A
C1721      H1727   1.084       .  S
S1722      C1723   1.724       .  A
C1723      C1724   1.387       .  A
C1724      H1728   1.083       .  S
C1729      C1734   1.387       .  A
C1729      C1730   1.401       .  A
C1729      S1735   1.706       .  A
C1730      C1731   1.402       .  A
C1730      H1741   1.082       .  S
C1731      C1740   1.369       .  A
C1731      C1732   1.387       .  A
C1732      C1733   1.399       .  A
C1732      S1738   1.704       .  A
C1733      C1734   1.400       .  A
C1733      H1742   1.082       .  S
C1734      C1737   1.368       .  A
S1735      C1736   1.724       .  A
C1736      C1737   1.385       .  A
C1737      H1743   1.082       .  S
S1738      C1739   1.722       .  A
C1739      C1740   1.386       .  A
C1740      H1744   1.082       .  S
C1745      C1750   1.386       .  A
C1745      C1746   1.402       .  A
C1745      S1751   1.707       .  A
C1746      C1747   1.403       .  A
C1746      H1757   1.082       .  S
C1747      C1756   1.370       .  A
C1747      C1748   1.386       .  A
C1748      C1749   1.403       .  A
C1748      S1754   1.710       .  A
C1749      C1750   1.404       .  A
C1749      H1758   1.082       .  S
C1750      C1753   1.372       .  A
S1751      C1752   1.724       .  A
C1752      C1753   1.388       .  A
C1753      H1759   1.082       .  S
S1754      C1755   1.724       .  A
C1755      C1756   1.388       .  A
C1756      H1760   1.082       .  S
C1761      C1766   1.387       .  A
C1761      C1762   1.401       .  A
C1761      S1767   1.703       .  A
C1762      C1763   1.401       .  A
C1762      H1773   1.082       .  S
C1763      C1772   1.369       .  A
C1763      C1764   1.388       .  A
C1764      C1765   1.398       .  A
C1764      S1770   1.701       .  A
C1765      C1766   1.399       .  A
C1765      H1774   1.082       .  S
C1766      C1769   1.367       .  A
S1767      C1768   1.724       .  A
C1768      C1769   1.384       .  A
C1769      H1775   1.082       .  S
S1770      C1771   1.721       .  A
C1771      C1772   1.385       .  A
C1772      H1776   1.082       .  S
C1777      C1782   1.387       .  A
C1777      C1778   1.401       .  A
C1777      S1783   1.705       .  A
C1778      C1779   1.402       .  A
C1778      H1789   1.082       .  S
C1779      C1788   1.370       .  A
C1779      C1780   1.386       .  A
C1780      C1781   1.401       .  A
C1780      S1786   1.705       .  A
C1781      C1782   1.402       .  A
C1781      H1790   1.081       .  S
C1782      C1785   1.370       .  A
S1783      C1784   1.723       .  A
C1784      C1785   1.387       .  A
C1785      H1791   1.082       .  S
S1786      C1787   1.724       .  A
C1787      C1788   1.387       .  A
C1788      H1792   1.082       .  S
C1793      C1798   1.387       .  A
C1793      C1794   1.399       .  A
C1793      S1799   1.705       .  A
C1794      C1795   1.401       .  A
C1794      H1805   1.082       .  S
C1795      C1804   1.367       .  A
C1795      C1796   1.387       .  A
C1796      C1797   1.401       .  A
C1796      S1802   1.708       .  A
C1797      C1798   1.402       .  A
C1797      H1806   1.082       .  S
C1798      C1801   1.368       .  A
S1799      C1800   1.723       .  A
C1800      C1801   1.387       .  A
C1801      H1807   1.082       .  S
S1802      C1803   1.723       .  A
C1803      C1804   1.386       .  A
C1804      H1808   1.083       .  S
C1809      C1814   1.387       .  A
C1809      C1810   1.399       .  A
C1809      S1815   1.703       .  A
C1810      C1811   1.400       .  A
C1810      H1821   1.082       .  S
C1811      C1820   1.368       .  A
C1811      C1812   1.387       .  A
C1812      C1813   1.402       .  A
C1812      S1818   1.706       .  A
C1813      C1814   1.402       .  A
C1813      H1822   1.082       .  S
C1814      C1817   1.370       .  A
S1815      C1816   1.722       .  A
C1816      C1817   1.386       .  A
C1817      H1823   1.083       .  S
S1818      C1819   1.725       .  A
C1819      C1820   1.385       .  A
C1820      H1824   1.082       .  S
C1825      C1830   1.387       .  A
C1825      C1826   1.398       .  A
C1825      S1831   1.704       .  A
C1826      C1827   1.400       .  A
C1826      H1837   1.081       .  S
C1827      C1836   1.366       .  A
C1827      C1828   1.386       .  A
C1828      C1829   1.402       .  A
C1828      S1834   1.708       .  A
C1829      C1830   1.403       .  A
C1829      H1838   1.081       .  S
C1830      C1833   1.369       .  A
S1831      C1832   1.722       .  A
C1832      C1833   1.387       .  A
C1833      H1839   1.082       .  S
S1834      C1835   1.724       .  A
C1835      C1836   1.385       .  A
C1836      H1840   1.081       .  S
C1841      C1846   1.387       .  A
C1841      C1842   1.398       .  A
C1841      S1847   1.703       .  A
C1842      C1843   1.399       .  A
C1842      H1853   1.083       .  S
C1843      C1852   1.365       .  A
C1843      C1844   1.386       .  A
C1844      C1845   1.402       .  A
C1844      S1850   1.708       .  A
C1845      C1846   1.403       .  A
C1845      H1854   1.083       .  S
C1846      C1849   1.370       .  A
S1847      C1848   1.721       .  A
C1848      C1849   1.387       .  A
C1849      H1855   1.083       .  S
S1850      C1851   1.724       .  A
C1851      C1852   1.385       .  A
C1852      H1856   1.082       .  S
C1857      C1862   1.387       .  A
C1857      C1858   1.398       .  A
C1857      S1863   1.701       .  A
C1858      C1859   1.399       .  A
C1858      H1869   1.083       .  S
C1859      C1868   1.366       .  A
C1859      C1860   1.387       .  A
C1860      C1861   1.402       .  A
C1860      S1866   1.708       .  A
C1861      C1862   1.403       .  A
C1861      H1870   1.082       .  S
C1862      C1865   1.371       .  A
S1863      C1864   1.722       .  A
C1864      C1865   1.387       .  A
C1865      H1871   1.082       .  S
S1866      C1867   1.724       .  A
C1867      C1868   1.384       .  A
C1868      H1872   1.083       .  S
C1873      C1878   1.387       .  A
C1873      C1874   1.401       .  A
C1873      S1879   1.704       .  A
C1874      C1875   1.402       .  A
C1874      H1885   1.083       .  S
C1875      C1884   1.370       .  A
C1875      C1876   1.387       .  A
C1876      C1877   1.401       .  A
C1876      S1882   1.704       .  A
C1877      C1878   1.401       .  A
C1877      H1886   1.083       .  S
C1878      C1881   1.371       .  A
S1879      C1880   1.724       .  A
C1880      C1881   1.385       .  A
C1881      H1887   1.083       .  S
S1882      C1883   1.723       .  A
C1883      C1884   1.387       .  A
C1884      H1888   1.083       .  S
C1889      C1894   1.387       .  A
C1889      C1890   1.400       .  A
C1889      S1895   1.705       .  A
C1890      C1891   1.401       .  A
C1890      H1901   1.082       .  S
C1891      C1900   1.369       .  A
C1891      C1892   1.386       .  A
C1892      C1893   1.403       .  A
C1892      S1898   1.708       .  A
C1893      C1894   1.404       .  A
C1893      H1902   1.082       .  S
C1894      C1897   1.372       .  A
S1895      C1896   1.723       .  A
C1896      C1897   1.387       .  A
C1897      H1903   1.082       .  S
S1898      C1899   1.725       .  A
C1899      C1900   1.386       .  A
C1900      H1904   1.082       .  S
C1905      C1910   1.386       .  A
C1905      C1906   1.405       .  A
C1905      S1911   1.708       .  A
C1906      C1907   1.405       .  A
C1906      H1917   1.082       .  S
C1907      C1916   1.375       .  A
C1907      C1908   1.387       .  A
C1908      C1909   1.397       .  A
C1908      S1914   1.698       .  A
C1909      C1910   1.398       .  A
C1909      H1918   1.083       .  S
C1910      C1913   1.368       .  A
S1911      C1912   1.726       .  A
C1912      C1913   1.384       .  A
C1913      H1919   1.082       .  S
S1914      C1915   1.721       .  A
C1915      C1916   1.388       .  A
C1916      H1920   1.083       .  S
C1921      C1926   1.387       .  A
C1921      C1922   1.401       .  A
C1921      S1927   1.704       .  A
C1922      C1923   1.402       .  A
C1922      H1933   1.081       .  S
C1923      C1932   1.370       .  A
C1923      C1924   1.387       .  A
C1924      C1925   1.402       .  A
C1924      S1930   1.706       .  A
C1925      C1926   1.402       .  A
C1925      H1934   1.081       .  S
C1926      C1929   1.372       .  A
S1927      C1928   1.724       .  A
C1928      C1929   1.387       .  A
C1929      H1935   1.082       .  S
S1930      C1931   1.723       .  A
C1931      C1932   1.386       .  A
C1932      H1936   1.082       .  S
C1937      C1942   1.386       .  A
C1937      C1938   1.403       .  A
C1937      S1943   1.708       .  A
C1938      C1939   1.404       .  A
C1938      H1949   1.083       .  S
C1939      C1948   1.372       .  A
C1939      C1940   1.387       .  A
C1940      C1941   1.398       .  A
C1940      S1946   1.701       .  A
C1941      C1942   1.398       .  A
C1941      H1950   1.083       .  S
C1942      C1945   1.366       .  A
S1943      C1944   1.725       .  A
C1944      C1945   1.385       .  A
C1945      H1951   1.083       .  S
S1946      C1947   1.721       .  A
C1947      C1948   1.388       .  A
C1948      H1952   1.083       .  S
C1953      C1958   1.386       .  A
C1953      C1954   1.403       .  A
C1953      S1959   1.707       .  A
C1954      C1955   1.403       .  A
C1954      H1965   1.083       .  S
C1955      C1964   1.372       .  A
C1955      C1956   1.387       .  A
C1956      C1957   1.400       .  A
C1956      S1962   1.704       .  A
C1957      C1958   1.401       .  A
C1957      H1966   1.083       .  S
C1958      C1961   1.369       .  A
S1959      C1960   1.725       .  A
C1960      C1961   1.386       .  A
C1961      H1967   1.082       .  S
S1962      C1963   1.723       .  A
C1963      C1964   1.387       .  A
C1964      H1968   1.083       .  S
C1969      C1974   1.387       .  A
C1969      C1970   1.398       .  A
C1969      S1975   1.702       .  A
C1970      C1971   1.399       .  A
C1970      H1981   1.083       .  S
C1971      C1980   1.366       .  A
C1971      C1972   1.387       .  A
C1972      C1973   1.400       .  A
C1972      S1978   1.704       .  A
C1973      C1974   1.401       .  A
C1973      H1982   1.083       .  S
C1974      C1977   1.368       .  A
S1975      C1976   1.722       .  A
C1976      C1977   1.385       .  A
C1977      H1983   1.083       .  S
S1978      C1979   1.723       .  A
C1979      C1980   1.384       .  A
C1980      H1984   1.083       .  S
C1985      C1990   1.387       .  A
C1985      C1986   1.402       .  A
C1985      S1991   1.708       .  A
C1986      C1987   1.403       .  A
C1986      H1997   1.083       .  S
C1987      C1996   1.371       .  A
C1987      C1988   1.387       .  A
C1988      C1989   1.399       .  A
C1988      S1994   1.703       .  A
C1989      C1990   1.400       .  A
C1989      H1998   1.083       .  S
C1990      C1993   1.367       .  A
S1991      C1992   1.724       .  A
C1992      C1993   1.385       .  A
C1993      H1999   1.083       .  S
S1994      C1995   1.721       .  A
C1995      C1996   1.387       .  A
C1996      H2000   1.083       .  S
C2001      C2006   1.386       .  A
C2001      C2002   1.402       .  A
C2001      S2007   1.708       .  A
C2002      C2003   1.403       .  A
C2002      H2013   1.083       .  S
C2003      C2012   1.370       .  A
C2003      C2004   1.387       .  A
C2004      C2005   1.398       .  A
C2004      S2010   1.704       .  A
C2005      C2006   1.400       .  A
C2005      H2014   1.084       .  S
C2006      C2009   1.366       .  A
S2007      C2008   1.724       .  A
C2008      C2009   1.386       .  A
C2009      H2015   1.083       .  S
S2010      C2011   1.722       .  A
C2011      C2012   1.387       .  A
C2012      H2016   1.083       .  S
C2017      C2022   1.386       .  A
C2017      C2018   1.402       .  A
C2017      S2023   1.707       .  A
C2018      C2019   1.403       .  A
C2018      H2029   1.084       .  S
C2019      C2028   1.371       .  A
C2019      C2020   1.387       .  A
C2020      C2021   1.399       .  A
C2020      S2026   1.703       .  A
C2021      C2022   1.401       .  A
C2021      H2030   1.084       .  S
C2022      C2025   1.368       .  A
S2023      C2024   1.724       .  A
C2024      C2025   1.387       .  A
C2025      H2031   1.083       .  S
S2026      C2027   1.723       .  A
C2027      C2028   1.386       .  A
C2028      H2032   1.083       .  S
C2033      C2038   1.387       .  A
C2033      C2034   1.400       .  A
C2033      S2039   1.706       .  A
C2034      C2035   1.402       .  A
C2034      H2045   1.083       .  S
C2035      C2044   1.368       .  A
C2035      C2036   1.387       .  A
C2036      C2037   1.397       .  A
C2036      S2042   1.701       .  A
C2037      C2038   1.398       .  A
C2037      H2046   1.083       .  S
C2038      C2041   1.364       .  A
S2039      C2040   1.723       .  A
C2040      C2041   1.384       .  A
C2041      H2047   1.082       .  S
S2042      C2043   1.721       .  A
C2043      C2044   1.385       .  A
C2044      H2048   1.083       .  S
C2049      C2054   1.387       .  A
C2049      C2050   1.402       .  A
C2049      S2055   1.706       .  A
C2050      C2051   1.403       .  A
C2050      H2061   1.082       .  S
C2051      C2060   1.371       .  A
C2051      C2052   1.387       .  A
C2052      C2053   1.398       .  A
C2052      S2058   1.701       .  A
C2053      C2054   1.398       .  A
C2053      H2062   1.082       .  S
C2054      C2057   1.366       .  A
S2055      C2056   1.725       .  A
C2056      C2057   1.384       .  A
C2057      H2063   1.082       .  S
S2058      C2059   1.721       .  A
C2059      C2060   1.386       .  A
C2060      H2064   1.083       .  S
C2065      C2070   1.387       .  A
C2065      C2066   1.404       .  A
C2065      S2071   1.710       .  A
C2066      C2067   1.405       .  A
C2066      H2077   1.082       .  S
C2067      C2076   1.373       .  A
C2067      C2068   1.387       .  A
C2068      C2069   1.400       .  A
C2068      S2074   1.704       .  A
C2069      C2070   1.400       .  A
C2069      H2078   1.082       .  S
C2070      C2073   1.368       .  A
S2071      C2072   1.724       .  A
C2072      C2073   1.385       .  A
C2073      H2079   1.083       .  S
S2074      C2075   1.723       .  A
C2075      C2076   1.389       .  A
C2076      H2080   1.082       .  S
C2081      C2086   1.387       .  A
C2081      C2082   1.400       .  A
C2081      S2087   1.705       .  A
C2082      C2083   1.401       .  A
C2082      H2093   1.083       .  S
C2083      C2092   1.368       .  A
C2083      C2084   1.387       .  A
C2084      C2085   1.399       .  A
C2084      S2090   1.703       .  A
C2085      C2086   1.400       .  A
C2085      H2094   1.083       .  S
C2086      C2089   1.367       .  A
S2087      C2088   1.722       .  A
C2088      C2089   1.385       .  A
C2089      H2095   1.083       .  S
S2090      C2091   1.723       .  A
C2091      C2092   1.386       .  A
C2092      H2096   1.082       .  S
C2097      C2102   1.387       .  A
C2097      C2098   1.401       .  A
C2097      S2103   1.705       .  A
C2098      C2099   1.401       .  A
C2098      H2109   1.082       .  S
C2099      C2108   1.370       .  A
C2099      C2100   1.387       .  A
C2100      C2101   1.401       .  A
C2100      S2106   1.704       .  A
C2101      C2102   1.401       .  A
C2101      H2110   1.082       .  S
C2102      C2105   1.370       .  A
S2103      C2104   1.723       .  A
C2104      C2105   1.386       .  A
C2105      H2111   1.083       .  S
S2106      C2107   1.724       .  A
C2107      C2108   1.386       .  A
C2108      H2112   1.082       .  S
C2113      C2118   1.386       .  A
C2113      C2114   1.399       .  A
C2113      S2119   1.704       .  A
C2114      C2115   1.400       .  A
C2114      H2125   1.081       .  S
C2115      C2124   1.367       .  A
C2115      C2116   1.387       .  A
C2116      C2117   1.402       .  A
C2116      S2122   1.708       .  A
C2117      C2118   1.403       .  A
C2117      H2126   1.081       .  S
C2118      C2121   1.369       .  A
S2119      C2120   1.722       .  A
C2120      C2121   1.388       .  A
C2121      H2127   1.081       .  S
S2122      C2123   1.723       .  A
C2123      C2124   1.385       .  A
C2124      H2128   1.082       .  S
C2129      C2134   1.387       .  A
C2129      C2130   1.397       .  A
C2129      S2135   1.704       .  A
C2130      C2131   1.399       .  A
C2130      H2141   1.084       .  S
C2131      C2140   1.365       .  A
C2131      C2132   1.387       .  A
C2132      C2133   1.401       .  A
C2132      S2138   1.707       .  A
C2133      C2134   1.403       .  A
C2133      H2142   1.084       .  S
C2134      C2137   1.368       .  A
S2135      C2136   1.720       .  A
C2136      C2137   1.387       .  A
C2137      H2143   1.084       .  S
S2138      C2139   1.724       .  A
C2139      C2140   1.384       .  A
C2140      H2144   1.083       .  S
C2145      C2150   1.387       .  A
C2145      C2146   1.400       .  A
C2145      S2151   1.706       .  A
C2146      C2147   1.401       .  A
C2146      H2157   1.083       .  S
C2147      C2156   1.369       .  A
C2147      C2148   1.387       .  A
C2148      C2149   1.400       .  A
C2148      S2154   1.704       .  A
C2149      C2150   1.401       .  A
C2149      H2158   1.084       .  S
C2150      C2153   1.368       .  A
S2151      C2152   1.722       .  A
C2152      C2153   1.385       .  A
C2153      H2159   1.083       .  S
S2154      C2155   1.724       .  A
C2155      C2156   1.386       .  A
C2156      H2160   1.083       .  S
C2161      C2166   1.386       .  A
C2161      C2162   1.406       .  A
C2161      S2167   1.713       .  A
C2162      C2163   1.406       .  A
C2162      H2173   1.081       .  S
C2163      C2172   1.375       .  A
C2163      C2164   1.386       .  A
C2164      C2165   1.401       .  A
C2164      S2170   1.705       .  A
C2165      C2166   1.402       .  A
C2165      H2174   1.081       .  S
C2166      C2169   1.370       .  A
S2167      C2168   1.726       .  A
C2168      C2169   1.387       .  A
C2169      H2175   1.082       .  S
S2170      C2171   1.724       .  A
C2171      C2172   1.390       .  A
C2172      H2176   1.081       .  S
C2177      C2182   1.387       .  A
C2177      C2178   1.398       .  A
C2177      S2183   1.705       .  A
C2178      C2179   1.400       .  A
C2178      H2189   1.084       .  S
C2179      C2188   1.366       .  A
C2179      C2180   1.387       .  A
C2180      C2181   1.401       .  A
C2180      S2186   1.707       .  A
C2181      C2182   1.403       .  A
C2181      H2190   1.084       .  S
C2182      C2185   1.369       .  A
S2183      C2184   1.721       .  A
C2184      C2185   1.387       .  A
C2185      H2191   1.084       .  S
S2186      C2187   1.724       .  A
C2187      C2188   1.385       .  A
C2188      H2192   1.084       .  S
C2193      C2198   1.387       .  A
C2193      C2194   1.405       .  A
C2193      S2199   1.709       .  A
C2194      C2195   1.405       .  A
C2194      H2205   1.081       .  S
C2195      C2204   1.375       .  A
C2195      C2196   1.386       .  A
C2196      C2197   1.401       .  A
C2196      S2202   1.704       .  A
C2197      C2198   1.402       .  A
C2197      H2206   1.081       .  S
C2198      C2201   1.372       .  A
S2199      C2200   1.726       .  A
C2200      C2201   1.387       .  A
C2201      H2207   1.082       .  S
S2202      C2203   1.724       .  A
C2203      C2204   1.389       .  A
C2204      H2208   1.081       .  S
C2209      C2214   1.387       .  A
C2209      C2210   1.400       .  A
C2209      S2215   1.704       .  A
C2210      C2211   1.401       .  A
C2210      H2221   1.083       .  S
C2211      C2220   1.368       .  A
C2211      C2212   1.387       .  A
C2212      C2213   1.401       .  A
C2212      S2218   1.706       .  A
C2213      C2214   1.401       .  A
C2213      H2222   1.083       .  S
C2214      C2217   1.369       .  A
S2215      C2216   1.722       .  A
C2216      C2217   1.385       .  A
C2217      H2223   1.083       .  S
S2218      C2219   1.724       .  A
C2219      C2220   1.386       .  A
C2220      H2224   1.083       .  S
C2225      C2230   1.387       .  A
C2225      C2226   1.400       .  A
C2225      S2231   1.704       .  A
C2226      C2227   1.401       .  A
C2226      H2237   1.083       .  S
C2227      C2236   1.369       .  A
C2227      C2228   1.387       .  A
C2228      C2229   1.403       .  A
C2228      S2234   1.708       .  A
C2229      C2230   1.404       .  A
C2229      H2238   1.083       .  S
C2230      C2233   1.372       .  A
S2231      C2232   1.723       .  A
C2232      C2233   1.388       .  A
C2233      H2239   1.082       .  S
S2234      C2235   1.724       .  A
C2235      C2236   1.386       .  A
C2236      H2240   1.083       .  S
C2241      C2246   1.386       .  A
C2241      C2242   1.402       .  A
C2241      S2247   1.707       .  A
C2242      C2243   1.403       .  A
C2242      H2253   1.083       .  S
C2243      C2252   1.370       .  A
C2243      C2244   1.387       .  A
C2244      C2245   1.399       .  A
C2244      S2250   1.704       .  A
C2245      C2246   1.400       .  A
C2245      H2254   1.083       .  S
C2246      C2249   1.367       .  A
S2247      C2248   1.724       .  A
C2248      C2249   1.386       .  A
C2249      H2255   1.083       .  S
S2250      C2251   1.722       .  A
C2251      C2252   1.386       .  A
C2252      H2256   1.083       .  S
C2257      C2262   1.387       .  A
C2257      C2258   1.402       .  A
C2257      S2263   1.706       .  A
C2258      C2259   1.403       .  A
C2258      H2269   1.082       .  S
C2259      C2268   1.370       .  A
C2259      C2260   1.387       .  A
C2260      C2261   1.398       .  A
C2260      S2266   1.702       .  A
C2261      C2262   1.399       .  A
C2261      H2270   1.083       .  S
C2262      C2265   1.367       .  A
S2263      C2264   1.724       .  A
C2264      C2265   1.384       .  A
C2265      H2271   1.083       .  S
S2266      C2267   1.722       .  A
C2267      C2268   1.387       .  A
C2268      H2272   1.082       .  S
C2273      C2278   1.387       .  A
C2273      C2274   1.400       .  A
C2273      S2279   1.704       .  A
C2274      C2275   1.401       .  A
C2274      H2285   1.082       .  S
C2275      C2284   1.368       .  A
C2275      C2276   1.387       .  A
C2276      C2277   1.398       .  A
C2276      S2282   1.703       .  A
C2277      C2278   1.399       .  A
C2277      H2286   1.082       .  S
C2278      C2281   1.367       .  A
S2279      C2280   1.723       .  A
C2280      C2281   1.385       .  A
C2281      H2287   1.082       .  S
S2282      C2283   1.722       .  A
C2283      C2284   1.385       .  A
C2284      H2288   1.083       .  S
C2289      C2294   1.387       .  A
C2289      C2290   1.400       .  A
C2289      S2295   1.705       .  A
C2290      C2291   1.401       .  A
C2290      H2301   1.081       .  S
C2291      C2300   1.367       .  A
C2291      C2292   1.387       .  A
C2292      C2293   1.401       .  A
C2292      S2298   1.707       .  A
C2293      C2294   1.402       .  A
C2293      H2302   1.081       .  S
C2294      C2297   1.368       .  A
S2295      C2296   1.722       .  A
C2296      C2297   1.387       .  A
C2297      H2303   1.081       .  S
S2298      C2299   1.723       .  A
C2299      C2300   1.386       .  A
C2300      H2304   1.082       .  S
C2305      C2310   1.387       .  A
C2305      C2306   1.402       .  A
C2305      S2311   1.707       .  A
C2306      C2307   1.403       .  A
C2306      H2317   1.083       .  S
C2307      C2316   1.370       .  A
C2307      C2308   1.387       .  A
C2308      C2309   1.398       .  A
C2308      S2314   1.703       .  A
C2309      C2310   1.399       .  A
C2309      H2318   1.083       .  S
C2310      C2313   1.366       .  A
S2311      C2312   1.724       .  A
C2312      C2313   1.385       .  A
C2313      H2319   1.082       .  S
S2314      C2315   1.722       .  A
C2315      C2316   1.386       .  A
C2316      H2320   1.083       .  S
C2321      C2326   1.387       .  A
C2321      C2322   1.402       .  A
C2321      S2327   1.707       .  A
C2322      C2323   1.403       .  A
C2322      H2333   1.084       .  S
C2323      C2332   1.372       .  A
C2323      C2324   1.386       .  A
C2324      C2325   1.402       .  A
C2324      S2330   1.707       .  A
C2325      C2326   1.402       .  A
C2325      H2334   1.084       .  S
C2326      C2329   1.372       .  A
S2327      C2328   1.725       .  A
C2328      C2329   1.387       .  A
C2329      H2335   1.084       .  S
S2330      C2331   1.724       .  A
C2331      C2332   1.388       .  A
C2332      H2336   1.084       .  S
C2337      C2342   1.386       .  A
C2337      C2338   1.402       .  A
C2337      S2343   1.707       .  A
C2338      C2339   1.403       .  A
C2338      H2349   1.083       .  S
C2339      C2348   1.371       .  A
C2339      C2340   1.387       .  A
C2340      C2341   1.400       .  A
C2340      S2346   1.705       .  A
C2341      C2342   1.401       .  A
C2341      H2350   1.083       .  S
C2342      C2345   1.370       .  A
S2343      C2344   1.725       .  A
C2344      C2345   1.386       .  A
C2345      H2351   1.083       .  S
S2346      C2347   1.722       .  A
C2347      C2348   1.388       .  A
C2348      H2352   1.083       .  S
C2353      C2358   1.387       .  A
C2353      C2354   1.403       .  A
C2353      S2359   1.709       .  A
C2354      C2355   1.404       .  A
C2354      H2365   1.081       .  S
C2355      C2364   1.372       .  A
C2355      C2356   1.386       .  A
C2356      C2357   1.401       .  A
C2356      S2362   1.706       .  A
C2357      C2358   1.402       .  A
C2357      H2366   1.081       .  S
C2358      C2361   1.370       .  A
S2359      C2360   1.724       .  A
C2360      C2361   1.387       .  A
C2361      H2367   1.082       .  S
S2362      C2363   1.724       .  A
C2363      C2364   1.388       .  A
C2364      H2368   1.081       .  S
C2369      C2374   1.386       .  A
C2369      C2370   1.403       .  A
C2369      S2375   1.707       .  A
C2370      C2371   1.403       .  A
C2370      H2381   1.083       .  S
C2371      C2380   1.373       .  A
C2371      C2372   1.387       .  A
C2372      C2373   1.400       .  A
C2372      S2378   1.704       .  A
C2373      C2374   1.401       .  A
C2373      H2382   1.083       .  S
C2374      C2377   1.370       .  A
S2375      C2376   1.725       .  A
C2376      C2377   1.386       .  A
C2377      H2383   1.082       .  S
S2378      C2379   1.723       .  A
C2379      C2380   1.387       .  A
C2380      H2384   1.083       .  S
C2385      C2390   1.387       .  A
C2385      C2386   1.401       .  A
C2385      S2391   1.706       .  A
C2386      C2387   1.402       .  A
C2386      H2397   1.084       .  S
C2387      C2396   1.371       .  A
C2387      C2388   1.387       .  A
C2388      C2389   1.401       .  A
C2388      S2394   1.705       .  A
C2389      C2390   1.402       .  A
C2389      H2398   1.084       .  S
C2390      C2393   1.370       .  A
S2391      C2392   1.724       .  A
C2392      C2393   1.387       .  A
C2393      H2399   1.084       .  S
S2394      C2395   1.724       .  A
C2395      C2396   1.386       .  A
C2396      H2400   1.084       .  S
C2401      C2406   1.387       .  A
C2401      C2402   1.401       .  A
C2401      S2407   1.706       .  A
C2402      C2403   1.402       .  A
C2402      H2413   1.083       .  S
C2403      C2412   1.371       .  A
C2403      C2404   1.387       .  A
C2404      C2405   1.400       .  A
C2404      S2410   1.704       .  A
C2405      C2406   1.401       .  A
C2405      H2414   1.084       .  S
C2406      C2409   1.369       .  A
S2407      C2408   1.723       .  A
C2408      C2409   1.387       .  A
C2409      H2415   1.083       .  S
S2410      C2411   1.723       .  A
C2411      C2412   1.386       .  A
C2412      H2416   1.083       .  S
C2417      C2422   1.387       .  A
C2417      C2418   1.399       .  A
C2417      S2423   1.702       .  A
C2418      C2419   1.400       .  A
C2418      H2429   1.083       .  S
C2419      C2428   1.367       .  A
C2419      C2420   1.387       .  A
C2420      C2421   1.399       .  A
C2420      S2426   1.703       .  A
C2421      C2422   1.400       .  A
C2421      H2430   1.083       .  S
C2422      C2425   1.367       .  A
S2423      C2424   1.722       .  A
C2424      C2425   1.384       .  A
C2425      H2431   1.083       .  S
S2426      C2427   1.723       .  A
C2427      C2428   1.385       .  A
C2428      H2432   1.082       .  S
C2433      C2438   1.386       .  A
C2433      C2434   1.401       .  A
C2433      S2439   1.706       .  A
C2434      C2435   1.402       .  A
C2434      H2445   1.083       .  S
C2435      C2444   1.369       .  A
C2435      C2436   1.387       .  A
C2436      C2437   1.401       .  A
C2436      S2442   1.707       .  A
C2437      C2438   1.402       .  A
C2437      H2446   1.083       .  S
C2438      C2441   1.369       .  A
S2439      C2440   1.723       .  A
C2440      C2441   1.387       .  A
C2441      H2447   1.082       .  S
S2442      C2443   1.723       .  A
C2443      C2444   1.386       .  A
C2444      H2448   1.083       .  S
C2449      C2454   1.387       .  A
C2449      C2450   1.402       .  A
C2449      S2455   1.705       .  A
C2450      C2451   1.402       .  A
C2450      H2461   1.083       .  S
C2451      C2460   1.371       .  A
C2451      C2452   1.387       .  A
C2452      C2453   1.400       .  A
C2452      S2458   1.703       .  A
C2453      C2454   1.401       .  A
C2453      H2462   1.083       .  S
C2454      C2457   1.369       .  A
S2455      C2456   1.724       .  A
C2456      C2457   1.386       .  A
C2457      H2463   1.082       .  S
S2458      C2459   1.723       .  A
C2459      C2460   1.386       .  A
C2460      H2464   1.083       .  S
C2465      C2470   1.387       .  A
C2465      C2466   1.401       .  A
C2465      S2471   1.704       .  A
C2466      C2467   1.401       .  A
C2466      H2477   1.083       .  S
C2467      C2476   1.370       .  A
C2467      C2468   1.387       .  A
C2468      C2469   1.401       .  A
C2468      S2474   1.705       .  A
C2469      C2470   1.402       .  A
C2469      H2478   1.083       .  S
C2470      C2473   1.371       .  A
S2471      C2472   1.723       .  A
C2472      C2473   1.387       .  A
C2473      H2479   1.082       .  S
S2474      C2475   1.724       .  A
C2475      C2476   1.385       .  A
C2476      H2480   1.083       .  S
C2481      C2486   1.386       .  A
C2481      C2482   1.403       .  A
C2481      S2487   1.707       .  A
C2482      C2483   1.403       .  A
C2482      H2493   1.082       .  S
C2483      C2492   1.372       .  A
C2483      C2484   1.387       .  A
C2484      C2485   1.399       .  A
C2484      S2490   1.704       .  A
C2485      C2486   1.400       .  A
C2485      H2494   1.083       .  S
C2486      C2489   1.369       .  A
S2487      C2488   1.725       .  A
C2488      C2489   1.386       .  A
C2489      H2495   1.082       .  S
S2490      C2491   1.722       .  A
C2491      C2492   1.387       .  A
C2492      H2496   1.083       .  S
C2497      C2502   1.387       .  A
C2497      C2498   1.402       .  A
C2497      S2503   1.707       .  A
C2498      C2499   1.403       .  A
C2498      H2509   1.083       .  S
C2499      C2508   1.372       .  A
C2499      C2500   1.387       .  A
C2500      C2501   1.398       .  A
C2500      S2506   1.701       .  A
C2501      C2502   1.399       .  A
C2501      H2510   1.083       .  S
C2502      C2505   1.367       .  A
S2503      C2504   1.724       .  A
C2504      C2505   1.385       .  A
C2505      H2511   1.083       .  S
S2506      C2507   1.722       .  A
C2507      C2508   1.387       .  A
C2508      H2512   1.083       .  S
C2513      C2518   1.387       .  A
C2513      C2514   1.402       .  A
C2513      S2519   1.706       .  A
C2514      C2515   1.402       .  A
C2514      H2525   1.082       .  S
C2515      C2524   1.372       .  A
C2515      C2516   1.387       .  A
C2516      C2517   1.402       .  A
C2516      S2522   1.705       .  A
C2517      C2518   1.402       .  A
C2517      H2526   1.082       .  S
C2518      C2521   1.372       .  A
S2519      C2520   1.724       .  A
C2520      C2521   1.387       .  A
C2521      H2527   1.082       .  S
S2522      C2523   1.724       .  A
C2523      C2524   1.387       .  A
C2524      H2528   1.082       .  S
C2529      C2534   1.386       .  A
C2529      C2530   1.399       .  A
C2529      S2535   1.706       .  A
C2530      C2531   1.401       .  A
C2530      H2541   1.083       .  S
C2531      C2540   1.366       .  A
C2531      C2532   1.387       .  A
C2532      C2533   1.401       .  A
C2532      S2538   1.709       .  A
C2533      C2534   1.403       .  A
C2533      H2542   1.083       .  S
C2534      C2537   1.369       .  A
S2535      C2536   1.723       .  A
C2536      C2537   1.388       .  A
C2537      H2543   1.082       .  S
S2538      C2539   1.723       .  A
C2539      C2540   1.385       .  A
C2540      H2544   1.083       .  S
C2545      C2550   1.387       .  A
C2545      C2546   1.400       .  A
C2545      S2551   1.703       .  A
C2546      C2547   1.400       .  A
C2546      H2557   1.081       .  S
C2547      C2556   1.369       .  A
C2547      C2548   1.387       .  A
C2548      C2549   1.403       .  A
C2548      S2554   1.708       .  A
C2549      C2550   1.404       .  A
C2549      H2558   1.081       .  S
C2550      C2553   1.373       .  A
S2551      C2552   1.723       .  A
C2552      C2553   1.388       .  A
C2553      H2559   1.081       .  S
S2554      C2555   1.725       .  A
C2555      C2556   1.385       .  A
C2556      H2560   1.082       .  S
C2561      C2566   1.387       .  A
C2561      C2562   1.400       .  A
C2561      S2567   1.706       .  A
C2562      C2563   1.402       .  A
C2562      H2573   1.083       .  S
C2563      C2572   1.367       .  A
C2563      C2564   1.387       .  A
C2564      C2565   1.399       .  A
C2564      S2570   1.706       .  A
C2565      C2566   1.401       .  A
C2565      H2574   1.083       .  S
C2566      C2569   1.367       .  A
S2567      C2568   1.723       .  A
C2568      C2569   1.386       .  A
C2569      H2575   1.083       .  S
S2570      C2571   1.721       .  A
C2571      C2572   1.386       .  A
C2572      H2576   1.083       .  S
C2577      C2582   1.387       .  A
C2577      C2578   1.401       .  A
C2577      S2583   1.704       .  A
C2578      C2579   1.401       .  A
C2578      H2589   1.082       .  S
C2579      C2588   1.369       .  A
C2579      C2580   1.387       .  A
C2580      C2581   1.399       .  A
C2580      S2586   1.703       .  A
C2581      C2582   1.400       .  A
C2581      H2590   1.082       .  S
C2582      C2585   1.368       .  A
S2583      C2584   1.724       .  A
C2584      C2585   1.385       .  A
C2585      H2591   1.082       .  S
S2586      C2587   1.722       .  A
C2587      C2588   1.385       .  A
C2588      H2592   1.082       .  S
C2593      C2598   1.387       .  A
C2593      C2594   1.397       .  A
C2593      S2599   1.701       .  A
C2594      C2595   1.399       .  A
C2594      H2605   1.083       .  S
C2595      C2604   1.366       .  A
C2595      C2596   1.387       .  A
C2596      C2597   1.402       .  A
C2596      S2602   1.707       .  A
C2597      C2598   1.402       .  A
C2597      H2606   1.083       .  S
C2598      C2601   1.369       .  A
S2599      C2600   1.721       .  A
C2600      C2601   1.386       .  A
C2601      H2607   1.083       .  S
S2602      C2603   1.724       .  A
C2603      C2604   1.384       .  A
C2604      H2608   1.083       .  S
C2609      C2614   1.387       .  A
C2609      C2610   1.399       .  A
C2609      S2615   1.703       .  A
C2610      C2611   1.400       .  A
C2610      H2621   1.081       .  S
C2611      C2620   1.366       .  A
C2611      C2612   1.387       .  A
C2612      C2613   1.402       .  A
C2612      S2618   1.709       .  A
C2613      C2614   1.404       .  A
C2613      H2622   1.081       .  S
C2614      C2617   1.371       .  A
S2615      C2616   1.723       .  A
C2616      C2617   1.388       .  A
C2617      H2623   1.081       .  S
S2618      C2619   1.723       .  A
C2619      C2620   1.385       .  A
C2620      H2624   1.082       .  S
C2625      C2630   1.387       .  A
C2625      C2626   1.400       .  A
C2625      S2631   1.705       .  A
C2626      C2627   1.401       .  A
C2626      H2637   1.083       .  S
C2627      C2636   1.369       .  A
C2627      C2628   1.387       .  A
C2628      C2629   1.403       .  A
C2628      S2634   1.709       .  A
C2629      C2630   1.404       .  A
C2629      H2638   1.083       .  S
C2630      C2633   1.372       .  A
S2631      C2632   1.723       .  A
C2632      C2633   1.388       .  A
C2633      H2639   1.082       .  S
S2634      C2635   1.724       .  A
C2635      C2636   1.386       .  A
C2636      H2640   1.083       .  S
