geometry optimzed in LAMMPS
_audit_creation_date              2020-11-30 
_audit_creation_method            'lammps2cif' 
_symmetry_space_group_name_H-M    'P1' 
_symmetry_Int_Tables_number       1 
_symmetry_cell_setting            triclinic 
loop_ 
_symmetry_equiv_pos_as_xyz 
  x,y,z 
_cell_length_a                    34.182633706093974 
_cell_length_b                    34.38596724249182 
_cell_length_c                    58.54335959107761 
_cell_angle_alpha                 89.97569033204292 
_cell_angle_beta                  90.16205596429901 
_cell_angle_gamma                 89.31087346766456 
loop_ 
_atom_site_label 
_atom_site_type_symbol 
_atom_site_fract_x 
_atom_site_fract_y 
_atom_site_fract_z 
_atom_site_charge 
C1          C  0.24899446  0.50075634  0.25060149    -0.02050
C2          C  0.47811534  0.25037678  0.00154715     0.01000
C3          C  0.01873660  0.25115771  0.00093456     0.01000
C4          C  0.25162048  0.49785441  0.75077738    -0.02050
C5          C  0.99772670  0.25224967  0.75049528    -0.02050
C6          C  0.25146312  0.47856349  0.00183369     0.01000
C7          C  0.25149069  0.01899671  0.00119030     0.01000
N8          N  0.22989935  0.33379224  0.89768796    -0.05680
N9          N  0.21707706  0.35720585  0.91401881    -0.57800
N10         N  0.26833852  0.33105905  0.84496722    -0.05360
N11         N  0.28285988  0.35032806  0.82760394    -0.59930
N12         N  0.22998447  0.33296810  0.84470621    -0.04960
N13         N  0.21771108  0.35428346  0.82719366    -0.57770
N14         N  0.26836425  0.33283106  0.89758864    -0.04630
N15         N  0.28252439  0.35560727  0.91370178    -0.60280
C16         C  0.25025834  0.37063504  0.92386720     0.96500
C17         C  0.25120390  0.36494909  0.81655602     0.96280
N18         N  0.33191614  0.22902579  0.84489891    -0.05860
N19         N  0.35422364  0.21597362  0.82818091    -0.58380
N20         N  0.33234034  0.26614684  0.89764745    -0.03980
N21         N  0.35529523  0.27944013  0.91392462    -0.59630
N22         N  0.33250759  0.22785594  0.89756833    -0.05890
N23         N  0.35567767  0.21434753  0.91394457    -0.58640
N24         N  0.33232500  0.26716426  0.84548121    -0.03630
N25         N  0.35504763  0.28095222  0.82931814    -0.59720
Mn26       Mn  0.30100037  0.30000550  0.87155149     1.18440
C27         C  0.36840141  0.24871431  0.81857715     0.98580
C28         C  0.36966630  0.24691496  0.92398787     0.99240
N29         N  0.16471194  0.26957916  0.84510361    -0.05910
N30         N  0.14154846  0.28343636  0.82893611    -0.62220
N31         N  0.16330563  0.23095705  0.89729957    -0.04720
N32         N  0.13772240  0.21861039  0.91249975    -0.62900
N33         N  0.16363004  0.26926762  0.89700334    -0.05420
N34         N  0.13833409  0.28342830  0.91185644    -0.62490
N35         N  0.16409755  0.23135333  0.84526079    -0.04320
N36         N  0.14044060  0.21839530  0.82926245    -0.63180
Mn37       Mn  0.19622268  0.30234735  0.87121402     1.10660
C38         C  0.12676797  0.25116268  0.81915376     0.99800
C39         C  0.12224183  0.25171412  0.92153009     0.99880
N40         N  0.26738130  0.16234956  0.89618402    -0.05430
N41         N  0.28145258  0.13680676  0.91092610    -0.60800
N42         N  0.22856005  0.16602401  0.84395399    -0.04750
N43         N  0.21495620  0.14485155  0.82691890    -0.57530
N44         N  0.26704401  0.16566886  0.84380375    -0.06060
N45         N  0.28036414  0.14418314  0.82673287    -0.60370
N46         N  0.22892633  0.16273945  0.89668153    -0.05040
N47         N  0.21627038  0.13736218  0.91192024    -0.57550
Mn48       Mn  0.30056163  0.19540348  0.87070606     1.20190
Mn49       Mn  0.19538421  0.19690371  0.87101978     1.10090
Cl50       Cl  0.24820948  0.24858870  0.87139374    -0.85520
C51         C  0.24948404  0.12125113  0.92077271     0.96810
C52         C  0.24756607  0.13203013  0.81604429     0.96610
N53         N  0.16664441  0.23239008  0.15659605    -0.05680
N54         N  0.14779201  0.21824194  0.17420050    -0.57800
N55         N  0.16639099  0.27209720  0.10442473    -0.05360
N56         N  0.14313046  0.28643041  0.08834503    -0.59930
N57         N  0.16637807  0.23381213  0.10400858    -0.04960
N58         N  0.14315304  0.22136526  0.08757547    -0.57770
N59         N  0.16614209  0.27049945  0.15715543    -0.04630
N60         N  0.14655452  0.28297273  0.17524524    -0.60280
C61         C  0.13536949  0.24984872  0.18590498     0.96500
C62         C  0.12888880  0.25445355  0.07791342     0.96280
N63         N  0.27139690  0.33536617  0.10661177    -0.05860
N64         N  0.28586929  0.36052253  0.09197698    -0.58380
N65         N  0.23091568  0.33257201  0.15824625    -0.03980
N66         N  0.21644936  0.35312240  0.17522457    -0.59630
N67         N  0.26929445  0.33290506  0.15873710    -0.05890
N68         N  0.28165837  0.35440909  0.17593864    -0.58640
N69         N  0.23292513  0.33627651  0.10591894    -0.03630
N70         N  0.22066090  0.36201843  0.09064803    -0.59720
Mn71       Mn  0.19815433  0.30373682  0.13124944     1.18440
C72         C  0.25402135  0.37711515  0.08203287     0.98580
C73         C  0.24823603  0.36680937  0.18619256     0.99240
N74         N  0.23114825  0.16615082  0.10489602    -0.05910
N75         N  0.21749661  0.14168592  0.08956031    -0.62220
N76         N  0.26812869  0.16690707  0.15794586    -0.04720
N77         N  0.28090311  0.14592083  0.17534505    -0.62900
N78         N  0.22970213  0.16742854  0.15732593    -0.05420
N79         N  0.21546891  0.14662162  0.17427154    -0.62490
N80         N  0.26961216  0.16489219  0.10526210    -0.04320
N81         N  0.28267142  0.13957226  0.08997514    -0.63180
Mn82       Mn  0.19758378  0.19921769  0.13045998     1.10660
C83         C  0.24979406  0.12511601  0.08021314     0.99800
C84         C  0.24776244  0.13406644  0.18560071     0.99880
N85         N  0.33313905  0.26736658  0.15921585    -0.05430
N86         N  0.35446045  0.28038910  0.17632061    -0.60800
N87         N  0.33589091  0.22952011  0.10641213    -0.04750
N88         N  0.35922893  0.21584591  0.09027677    -0.57530
N89         N  0.33608154  0.26782280  0.10660156    -0.06060
N90         N  0.35944925  0.28094518  0.09050633    -0.60370
N91         N  0.33338801  0.22915063  0.15896130    -0.05040
N92         N  0.35511174  0.21535853  0.17589429    -0.57550
Mn93       Mn  0.30344022  0.30162249  0.13267206     1.20190
Mn94       Mn  0.30269733  0.19671390  0.13198725     1.10090
Cl95       Cl  0.25050526  0.25033243  0.13124004    -0.85520
C96         C  0.36736733  0.24769313  0.18682976     0.96810
C97         C  0.37370100  0.24825120  0.08048159     0.96610
N98         N  0.08469870  0.01878192  0.65588876    -0.05680
N99         N  0.10592860  0.03197540  0.67302613    -0.57800
N100        N  0.08661456  0.48265202  0.60257005    -0.05360
N101        N  0.11247141  0.47089554  0.58712878    -0.59930
N102        N  0.08539001  0.02089483  0.60345618    -0.04960
N103        N  0.11037400  0.03566653  0.58878597    -0.57770
N104        N  0.08610977  0.48051229  0.65526582    -0.04630
N105        N  0.10858528  0.46696145  0.67197017    -0.60280
C106        C  0.12012895  0.99938863  0.68314259     0.96500
C107        C  0.12711637  0.00438728  0.57852457     0.96280
N108        N  0.48132772  0.41767080  0.60255512    -0.05860
N109        N  0.46669687  0.39309105  0.58763771    -0.58380
N110        N  0.02219291  0.41516370  0.65424298    -0.03980
N111        N  0.03573905  0.39174852  0.67041817    -0.59630
N112        N  0.48375959  0.41593151  0.65446392    -0.05890
N113        N  0.47030976  0.39350755  0.67077994    -0.58640
N114        N  0.01987829  0.41679564  0.60183971    -0.03630
N115        N  0.03191801  0.39160340  0.58616842    -0.59720
Mn116      Mn  0.05469773  0.44786393  0.62828471     1.18440
C117        C  0.49832686  0.37707586  0.57732236     0.98580
C118        C  0.50289553  0.37856690  0.68059907     0.99240
N119        N  0.01612328  0.08499262  0.60444120    -0.05910
N120        N  0.02778573  0.10773374  0.58765214    -0.62220
N121        N  0.48102499  0.08294384  0.65730945    -0.04720
N122        N  0.46743035  0.10777973  0.67242505    -0.62900
N123        N  0.01936951  0.08350991  0.65683630    -0.05420
N124        N  0.03258913  0.10854820  0.67201800    -0.62490
N125        N  0.47759701  0.08526624  0.60559568    -0.04320
N126        N  0.46238816  0.10826948  0.58971250    -0.63180
Mn127      Mn  0.05219967  0.05278976  0.63001712     1.10660
C128        C  0.49400117  0.12209195  0.57864165     0.99800
C129        C  0.49971719  0.12350650  0.68168983     0.99880
N130        N  0.41946063  0.47901816  0.65770148    -0.05430
N131        N  0.40054314  0.46322462  0.67486459    -0.60800
N132        N  0.41262802  0.02142947  0.60669051    -0.04750
N133        N  0.38822026  0.03672679  0.59159774    -0.57530
N134        N  0.41371829  0.48332855  0.60503881    -0.06060
N135        N  0.38994167  0.47182344  0.58859164    -0.60370
N136        N  0.41820550  0.01711786  0.65912174    -0.05040
N137        N  0.39782286  0.02798520  0.67730543    -0.57550
Mn138      Mn  0.44886635  0.44840878  0.62963683     1.20190
Mn139      Mn  0.44664887  0.05228930  0.63226224     1.10090
Cl140      Cl  0.50079383  0.00029714  0.62959609    -0.85520
C141        C  0.38701120  0.99387323  0.68705094     0.96810
C142        C  0.37404254  0.00552061  0.58053579     0.96610
N143        N  0.48060067  0.41644114  0.34319609    -0.05680
N144        N  0.46741380  0.39609313  0.32576392    -0.57800
N145        N  0.01600091  0.41418649  0.39669025    -0.05360
N146        N  0.02820440  0.39063312  0.41310849    -0.59930
N147        N  0.47747050  0.41522166  0.39591623    -0.04960
N148        N  0.46280759  0.39229329  0.41181458    -0.57770
N149        N  0.01898201  0.41501480  0.34396855    -0.04630
N150        N  0.03275940  0.39336250  0.32710480    -0.60280
C151        C  0.50024528  0.38243798  0.31563518     0.96500
C152        C  0.49479887  0.37719130  0.42248654     0.96280
N153        N  0.08381610  0.01577157  0.39779662    -0.05860
N154        N  0.10910038  0.02891203  0.41287332    -0.58380
N155        N  0.08373568  0.47765657  0.34515037    -0.03980
N156        N  0.10344862  0.46370622  0.32762628    -0.59630
N157        N  0.08521820  0.01578714  0.34540990    -0.05890
N158        N  0.10639966  0.02849252  0.32817214    -0.58640
N159        N  0.08412241  0.47750410  0.39770277    -0.03630
N160        N  0.11001054  0.46409666  0.41270990    -0.59720
Mn161      Mn  0.05157640  0.44509565  0.37108177     1.18440
C162        C  0.12555846  0.99655567  0.42211493     0.98580
C163        C  0.11761089  0.99561999  0.31711870     0.99240
N164        N  0.41200444  0.48278820  0.39348154    -0.05910
N165        N  0.38486024  0.47088927  0.40781814    -0.62220
N166        N  0.41954099  0.02027710  0.34101482    -0.04720
N167        N  0.39930455  0.03415730  0.32356403    -0.62900
N168        N  0.41839486  0.48210221  0.34130210    -0.05420
N169        N  0.39733633  0.46919269  0.32405026    -0.62490
N170        N  0.41296289  0.02099682  0.39314101    -0.04320
N171        N  0.38665740  0.03561047  0.40723988    -0.63180
Mn172      Mn  0.44627943  0.44821955  0.36871528     1.10660
C173        C  0.36898273  0.00418839  0.41631251     0.99800
C174        C  0.38632702  0.00195216  0.31287756     0.99880
N175        N  0.02252746  0.08126095  0.34410150    -0.05430
N176        N  0.03781177  0.10137279  0.32727111    -0.60800
N177        N  0.48012297  0.08421102  0.39530236    -0.04750
N178        N  0.46562030  0.10860813  0.41055767    -0.57530
N179        N  0.01857587  0.08306164  0.39660217    -0.06060
N180        N  0.03089888  0.10666021  0.41286711    -0.60370
N181        N  0.48423086  0.08290880  0.34311165    -0.05040
N182        N  0.47264053  0.10465257  0.32575054    -0.57550
Mn183      Mn  0.05334632  0.04975525  0.37123790     1.20190
Mn184      Mn  0.44844366  0.05290014  0.36825741     1.10090
Cl185      Cl  0.49989191  0.99894208  0.37043345    -0.85520
C186        C  0.50643168  0.11590184  0.31586903     0.96810
C187        C  0.49751241  0.12237016  0.42151648     0.96610
C188        C  0.99382862  0.26859022  0.50013777     0.01000
C189        C  0.99339112  0.22812858  0.49980823     0.01000
C190        C  0.27453475  0.51052674  0.49862602     0.01000
C191        C  0.23377616  0.50909140  0.49975911     0.01000
C192        C  0.00285449  0.24884378  0.25110977    -0.02050
C193        C  0.99771628  0.28453926  0.26856218    -0.04900
C194        C  0.49172444  0.32387623  0.26054776    -0.02010
C195        C  0.49169881  0.35579525  0.27595794     0.02970
C196        C  0.49967368  0.34984737  0.29922176    -0.04900
C197        C  0.00249354  0.31199641  0.30772599    -0.02000
C198        C  0.99650857  0.28008837  0.29318618     0.02970
C199        C  0.48717792  0.33316053  0.23653643     0.37620
C200        C  0.00852290  0.30587786  0.33213911     0.37610
C201        C  0.98172353  0.24598127  0.30483263     0.36040
C202        C  0.48525087  0.39521244  0.26773558     0.36040
N203        N  0.96904512  0.22037473  0.31518658    -0.38780
N204        N  0.48005182  0.42661040  0.26117982    -0.38780
N205        N  0.01331030  0.30112660  0.35152570    -0.38230
N206        N  0.48308756  0.34298073  0.21776238    -0.38230
C207        C  0.50859383  0.14441268  0.29666631    -0.04900
C208        C  0.04043777  0.16980895  0.29492273    -0.02010
C209        C  0.03889805  0.20178464  0.27979896     0.02970
C210        C  0.00535546  0.20905747  0.26521444    -0.04900
C211        C  0.47660238  0.17864053  0.26465673    -0.02000
C212        C  0.47767960  0.14797865  0.28082719     0.02970
C213        C  0.07408462  0.16538331  0.31007661     0.37620
C214        C  0.44737704  0.17480558  0.24682007     0.37610
C215        C  0.44665663  0.11936229  0.28082052     0.36040
C216        C  0.07121666  0.22867693  0.28166711     0.36040
N217        N  0.42165694  0.09697651  0.28077840    -0.38780
N218        N  0.09824075  0.24803128  0.28457564    -0.38780
N219        N  0.42420231  0.16898290  0.23280141    -0.38230
N220        N  0.10097484  0.16225982  0.32203289    -0.38230
C221        C  0.49565225  0.15149125  0.44050164    -0.04900
C222        C  0.02447614  0.18043557  0.44294607    -0.02010
C223        C  0.02324444  0.20668130  0.46158683     0.02970
C224        C  0.99222729  0.20534599  0.47764185    -0.04900
C225        C  0.46265548  0.17717354  0.47453906    -0.02000
C226        C  0.46487256  0.15010138  0.45651888     0.02970
C227        C  0.05611316  0.18294046  0.42655573     0.37620
C228        C  0.42969957  0.17521727  0.49010537     0.37610
C229        C  0.43694782  0.11869915  0.45579058     0.36040
C230        C  0.05656706  0.23152039  0.46553508     0.36040
N231        N  0.41507466  0.09331422  0.45564351    -0.38780
N232        N  0.08399894  0.25027693  0.46847819    -0.38780
N233        N  0.40292015  0.17304500  0.50207166    -0.38230
N234        N  0.08148708  0.18495613  0.41357559    -0.38230
C235        C  0.99541282  0.29351121  0.47855899    -0.04900
C236        C  0.02377078  0.32342992  0.47701157    -0.02010
C237        C  0.02129122  0.35201330  0.45978396     0.02970
C238        C  0.49397906  0.34878582  0.44185969    -0.04900
C239        C  0.46663670  0.31830953  0.44255490    -0.02000
C240        C  0.46607724  0.29208317  0.46126491     0.02970
C241        C  0.05633005  0.32543208  0.49290597     0.37620
C242        C  0.43852665  0.31405403  0.42413196     0.37610
C243        C  0.43278523  0.26671216  0.46344069     0.36040
C244        C  0.04438478  0.38698876  0.46189158     0.36040
N245        N  0.40501789  0.24792402  0.46466889    -0.38780
N246        N  0.06168098  0.41547543  0.46401764    -0.38780
N247        N  0.41611518  0.31058643  0.40943883    -0.38230
N248        N  0.08310919  0.32806976  0.50492748    -0.38230
C249        C  0.15762212  0.99743230  0.43980173    -0.04900
C250        C  0.18018786  0.03137557  0.44288061    -0.02010
C251        C  0.20584106  0.03490528  0.46173927     0.02970
C252        C  0.20939975  0.50457978  0.47812972    -0.04900
C253        C  0.18847693  0.46978717  0.47417526    -0.02000
C254        C  0.16488226  0.46547590  0.45447523     0.02970
C255        C  0.17832965  0.06272312  0.42622592     0.37620
C256        C  0.19010111  0.43800801  0.49043871     0.37610
C257        C  0.14982718  0.42734234  0.44899108     0.36040
C258        C  0.22535277  0.07170793  0.46484527     0.36040
N259        N  0.13914294  0.39646976  0.44445972    -0.38780
N260        N  0.23851917  0.10242291  0.46654320    -0.38780
N261        N  0.19019977  0.41186157  0.50289560    -0.38230
N262        N  0.17712878  0.08778643  0.41302475    -0.38230
C263        C  0.33793234  0.00633234  0.43442990    -0.04900
C264        C  0.31944207  0.47244642  0.44284401    -0.02010
C265        C  0.29624984  0.47432469  0.46283482     0.02970
C266        C  0.29354065  0.50941432  0.47546044    -0.04900
C267        C  0.31210141  0.04283654  0.46697838    -0.02000
C268        C  0.32943761  0.04226927  0.44526024     0.02970
C269        C  0.32518971  0.43508085  0.43175798     0.37620
C270        C  0.31567657  0.07733427  0.48107148     0.37610
C271        C  0.33625012  0.07899196  0.43383949     0.36040
C272        C  0.28225530  0.43843881  0.47275509     0.36040
N273        N  0.34077122  0.10833348  0.42456866    -0.38780
N274        N  0.27282962  0.40913531  0.48060288    -0.38940
N275        N  0.31899119  0.10488160  0.49222988    -0.38230
N276        N  0.32982378  0.40502847  0.42321520    -0.38230
C277        C  0.21002351  0.50977963  0.52173810    -0.04900
C278        C  0.18068147  0.03893084  0.52506869    -0.02010
C279        C  0.15681692  0.03892015  0.54468992     0.02970
C280        C  0.15737064  0.00700317  0.55989644    -0.04900
C281        C  0.18695280  0.47815254  0.55703738    -0.02000
C282        C  0.21385198  0.48022140  0.53858185     0.02970
C283        C  0.17474552  0.07057152  0.50900721     0.37620
C284        C  0.19107492  0.44713508  0.57367946     0.37610
C285        C  0.24463460  0.45102120  0.53674197     0.36040
C286        C  0.13287198  0.07314865  0.54942707     0.36040
N287        N  0.26921954  0.42768237  0.53552618    -0.38780
N288        N  0.11523568  0.10127886  0.55335497    -0.38780
N289        N  0.19453489  0.42243052  0.58699148    -0.38230
N290        N  0.16745324  0.09704446  0.49747682    -0.38230
C291        C  0.34939986  0.00858305  0.55971455    -0.04900
C292        C  0.31442959  0.03065376  0.55942003    -0.02010
C293        C  0.29320527  0.03558792  0.53881079     0.02970
C294        C  0.30239029  0.51270999  0.51926503    -0.04900
C295        C  0.34001399  0.49337846  0.51940740    -0.02000
C296        C  0.36362622  0.49315270  0.53920611     0.02970
C297        C  0.30042521  0.04874737  0.58027313     0.37620
C298        C  0.35741709  0.47520720  0.49950159     0.37610
C299        C  0.40428333  0.48009709  0.53802399     0.36040
C300        C  0.26696051  0.06878034  0.53698642     0.36040
N301        N  0.43684502  0.47063116  0.53701800    -0.38780
N302        N  0.24738046  0.09642006  0.53601336    -0.38780
N303        N  0.37421317  0.46091240  0.48448401    -0.38230
N304        N  0.28909997  0.06285105  0.59697807    -0.38230
C305        C  0.99407498  0.20269521  0.52129171    -0.04900
C306        C  0.96656465  0.20739931  0.53937256    -0.02010
C307        C  0.96810809  0.18271641  0.55877564     0.02970
C308        C  0.49225692  0.14916283  0.55876623    -0.04900
C309        C  0.51512983  0.14114880  0.53945471    -0.02000
C310        C  0.51929231  0.16926230  0.52217566     0.02970
C311        C  0.93353938  0.23388993  0.53730689     0.37620
C312        C  0.53068154  0.10210337  0.53604227     0.37610
C313        C  0.55030213  0.16283905  0.50571140     0.36040
C314        C  0.94430161  0.19164597  0.57860925     0.36040
N315        N  0.57571327  0.15628136  0.49321145    -0.38780
N316        N  0.92553264  0.19892776  0.59450051    -0.38780
N317        N  0.54165932  0.07056543  0.53298117    -0.38230
N318        N  0.90586599  0.25352141  0.53626018    -0.38230
C319        C  0.49585520  0.34657754  0.55900295    -0.04900
C320        C  0.46363947  0.34643538  0.54375497    -0.02010
C321        C  0.46287210  0.32062053  0.52507571     0.02970
C322        C  0.99278584  0.29208948  0.52207588    -0.04900
C323        C  0.02337335  0.28996334  0.53849190    -0.02000
C324        C  0.02509837  0.31727419  0.55662583     0.02970
C325        C  0.43042042  0.37250932  0.54709827     0.37620
C326        C  0.05500123  0.26183317  0.53587828     0.37610
C327        C  0.05667207  0.31434747  0.57316553     0.36040
C328        C  0.43028237  0.32367471  0.50916026     0.36040
N329        N  0.08184720  0.31182417  0.58636582    -0.38780
N330        N  0.40358132  0.32730292  0.49711395    -0.38780
N331        N  0.08063581  0.23979484  0.53396767    -0.38230
N332        N  0.40311228  0.39216964  0.54977073    -0.38230
C333        C  0.10872714  0.24789022  0.20619559    -0.04900
C334        C  0.10129241  0.28052204  0.22014427    -0.02010
C335        C  0.07116943  0.27988556  0.23681778     0.02970
C336        C  0.04312224  0.24874818  0.23721787    -0.04900
C337        C  0.05391869  0.21478709  0.22401408    -0.02000
C338        C  0.08835528  0.21348282  0.21090071     0.02970
C339        C  0.12596831  0.31449001  0.21822744     0.37620
C340        C  0.02887902  0.18127220  0.22139922     0.37610
C341        C  0.10176220  0.17618222  0.20187712     0.36040
C342        C  0.07338864  0.30993260  0.25409210     0.36040
N343        N  0.11230521  0.14627254  0.19503356    -0.38780
N344        N  0.07803343  0.33396174  0.26765315    -0.38780
N345        N  0.01152625  0.15323375  0.21778586    -0.38230
N346        N  0.14545918  0.34167586  0.21690908    -0.38230
C347        C  0.40043493  0.24787849  0.20311088    -0.04900
C348        C  0.43843610  0.24681252  0.19447190    -0.02010
C349        C  0.47070067  0.25291864  0.20899548     0.02970
C350        C  0.46658455  0.25166330  0.23365002    -0.04900
C351        C  0.42677477  0.25509979  0.24177763    -0.02000
C352        C  0.39447982  0.25378293  0.22649959     0.02970
C353        C  0.44419522  0.24187390  0.16995908     0.37620
C354        C  0.41717975  0.25862273  0.26576570     0.37610
C355        C  0.35462583  0.25676195  0.23496487     0.36040
C356        C  0.50490328  0.26728045  0.19718848     0.36040
N357        N  0.32289952  0.25910565  0.24171945    -0.38780
N358        N  0.53038721  0.27953012  0.18649120    -0.38780
N359        N  0.40626121  0.26194884  0.28436235    -0.38230
N360        N  0.44862894  0.23792785  0.15049947    -0.38230
C361        C  0.24902064  0.09482381  0.06156452    -0.04900
C362        C  0.28154638  0.06979865  0.05755975    -0.02010
C363        C  0.28181462  0.04372942  0.03877332     0.02970
C364        C  0.25033825  0.04348167  0.02285730    -0.04900
C365        C  0.21781263  0.06847551  0.02710423    -0.02000
C366        C  0.21588057  0.09117250  0.04717013     0.02970
C367        C  0.31456767  0.06953304  0.07321084     0.37620
C368        C  0.18548458  0.07148052  0.01105687     0.37610
C369        C  0.17861141  0.10892894  0.05327549     0.36040
C370        C  0.31642376  0.01979866  0.03517400     0.36040
N371        N  0.14837678  0.12179729  0.05826563    -0.38780
N372        N  0.34524976  0.00228245  0.03285588    -0.38780
N373        N  0.15885077  0.07535196  0.99898217    -0.38230
N374        N  0.34096125  0.06908509  0.08564275    -0.38230
C375        C  0.25548609  0.40761729  0.06367992    -0.04900
C376        C  0.28857180  0.41055998  0.04934010    -0.02010
C377        C  0.28637090  0.43213410  0.02890248     0.02970
C378        C  0.25371507  0.45674454  0.02429361    -0.04900
C379        C  0.22261536  0.45782647  0.04030382    -0.02000
C380        C  0.22316741  0.43286992  0.05955034     0.02970
C381        C  0.32581467  0.39299941  0.05577239     0.37620
C382        C  0.18766462  0.48097310  0.03592831     0.37610
C383        C  0.19058416  0.43420622  0.07539556     0.36040
C384        C  0.31814263  0.42808734  0.01264138     0.36040
N385        N  0.16456123  0.43547735  0.08799221    -0.38780
N386        N  0.34412811  0.42372559  0.00023715    -0.38780
N387        N  0.15866696  0.49791952  0.03289753    -0.38230
N388        N  0.35601385  0.38022653  0.06101769    -0.38230
C389        C  0.25116018  0.09137429  0.93958835    -0.04900
C390        C  0.21950732  0.06619603  0.94403415    -0.02010
C391        C  0.22065637  0.04046892  0.96302914     0.02970
C392        C  0.25187325  0.04199706  0.97905467    -0.04900
C393        C  0.28324495  0.06750056  0.97443823    -0.02000
C394        C  0.28458776  0.08847608  0.95380412     0.02970
C395        C  0.18628949  0.06533006  0.92858579     0.37620
C396        C  0.31535780  0.07247361  0.99038197     0.37610
C397        C  0.32163848  0.10498083  0.94689816     0.36040
C398        C  0.18831378  0.01426898  0.96661023     0.36040
N399        N  0.35165470  0.11681811  0.94123523    -0.38780
N400        N  0.16206861  0.99381424  0.96924663    -0.38780
N401        N  0.34195155  0.07837731  0.00210372    -0.38230
N402        N  0.15974897  0.06447627  0.91628229    -0.38230
C403        C  0.25029635  0.45271859  0.98061518    -0.04900
C404        C  0.22348565  0.42123260  0.97954664    -0.02010
C405        C  0.22613924  0.39309477  0.96208678     0.02970
C406        C  0.25103987  0.39860523  0.94336252    -0.04900
C407        C  0.27704441  0.43019440  0.94370655    -0.02000
C408        C  0.27847217  0.45544468  0.96282186     0.02970
C409        C  0.19226699  0.41683081  0.99600631     0.37620
C410        C  0.30301028  0.43648409  0.92451919     0.37610
C411        C  0.31191245  0.48062914  0.96492249     0.36040
C412        C  0.20639596  0.35621748  0.96475736     0.36040
N413        N  0.33996817  0.49903188  0.96604731    -0.38780
N414        N  0.19198745  0.32627010  0.96737067    -0.38780
N415        N  0.32364851  0.44159857  0.90919800    -0.38230
N416        N  0.16642094  0.41149774  0.00830350    -0.38230
C417        C  0.49852972  0.15580165  0.69872542    -0.04900
C418        C  0.02843750  0.18345095  0.69951994    -0.02010
C419        C  0.02764533  0.21369695  0.71583426     0.02970
C420        C  0.49739283  0.21647077  0.73299903    -0.04900
C421        C  0.46566583  0.18910454  0.73062591    -0.02000
C422        C  0.46615559  0.16040089  0.71334396     0.02970
C423        C  0.05979076  0.18215533  0.68274178     0.37620
C424        C  0.42932569  0.19093626  0.74349706     0.37610
C425        C  0.43099632  0.13769332  0.70949353     0.36040
C426        C  0.06081925  0.23976676  0.71541267     0.36040
N427        N  0.40219676  0.12129067  0.70607996    -0.38780
N428        N  0.08858592  0.25852893  0.71396325    -0.38780
N429        N  0.39930852  0.19091308  0.75264328    -0.38230
N430        N  0.08480341  0.18142327  0.66945428    -0.38230
C431        C  0.49870269  0.28909285  0.73366437    -0.04900
C432        C  0.52873274  0.31867929  0.73339523    -0.02010
C433        C  0.52777873  0.34926607  0.71718386     0.02970
C434        C  0.50197423  0.34824253  0.69860769    -0.04900
C435        C  0.97477307  0.31819704  0.69709765    -0.02000
C436        C  0.97098058  0.29108770  0.71495585     0.02970
C437        C  0.56405180  0.31752196  0.74714083     0.37620
C438        C  0.95082470  0.31432017  0.67661200     0.37610
C439        C  0.93618270  0.26734260  0.71383914     0.36040
C440        C  0.55419567  0.38197687  0.71944818     0.36040
N441        N  0.90703081  0.25099215  0.71155920    -0.38780
N442        N  0.57507992  0.40803076  0.72134882    -0.38780
N443        N  0.93196962  0.31102527  0.66028833    -0.38230
N444        N  0.59338778  0.31797270  0.75706710    -0.38230
C445        C  0.03382005  0.25102040  0.76795080    -0.04900
C446        C  0.03477294  0.27901387  0.78641769    -0.02010
C447        C  0.06393688  0.27757427  0.80344389     0.02970
C448        C  0.09557282  0.25152425  0.80158702    -0.04900
C449        C  0.09618461  0.22421311  0.78384271    -0.02000
C450        C  0.06438053  0.22140726  0.76850806     0.02970
C451        C  0.00793526  0.31202159  0.78777228     0.37620
C452        C  0.12966031  0.19790312  0.78160761     0.37610
C453        C  0.06318582  0.18492375  0.75606541     0.36040
C454        C  0.06075248  0.30284314  0.82332889     0.36040
N455        N  0.06366337  0.15484467  0.74715165    -0.38780
N456        N  0.05801053  0.32278193  0.83918316    -0.38780
N457        N  0.15611704  0.17684531  0.77976893    -0.38230
N458        N  0.48858692  0.33957071  0.79013069    -0.38230
C459        C  0.46108267  0.25200195  0.76739119    -0.04900
C460        C  0.43043878  0.28139752  0.76828900    -0.02010
C461        C  0.39884744  0.27801209  0.78372548     0.02970
C462        C  0.39919438  0.24925520  0.80077309    -0.04900
C463        C  0.43019973  0.22228031  0.80168706    -0.02000
C464        C  0.45941820  0.22214440  0.78479756     0.02970
C465        C  0.43124117  0.31774624  0.75569187     0.37620
C466        C  0.43260155  0.19433902  0.82037474     0.37610
C467        C  0.48513465  0.18821519  0.78489129     0.36040
C468        C  0.36556397  0.30470996  0.78206956     0.36040
N469        N  0.50301251  0.15952384  0.78633479    -0.38780
N470        N  0.33911231  0.32590419  0.78060527    -0.38780
N471        N  0.43467584  0.17210189  0.83519173    -0.38230
N472        N  0.43062034  0.34758171  0.74648986    -0.38230
C473        C  0.29223923  0.99490694  0.73706025    -0.04900
C474        C  0.32407398  0.02222626  0.73823669    -0.02010
C475        C  0.35737142  0.01800652  0.72389803     0.02970
C476        C  0.35829844  0.99049875  0.70625654    -0.04900
C477        C  0.33037643  0.46083797  0.70643597    -0.02000
C478        C  0.29896715  0.46184995  0.72213238     0.02970
C479        C  0.32600852  0.05386420  0.75449348     0.37620
C480        C  0.33229912  0.42981558  0.68952265     0.37610
C481        C  0.27189297  0.42981415  0.72021931     0.36040
C482        C  0.39309168  0.03878642  0.72897101     0.36040
N483        N  0.25273827  0.40281506  0.71704484    -0.38780
N484        N  0.42210781  0.05384323  0.73368912    -0.38780
N485        N  0.33347446  0.40504545  0.67614651    -0.38230
N486        N  0.33050271  0.07911334  0.76728723    -0.38230
C487        C  0.21630236  0.00256859  0.73255949    -0.04900
C488        C  0.17608018  0.50733414  0.73962320    -0.02010
C489        C  0.14482100  0.50651870  0.72350219     0.02970
C490        C  0.15224849  0.00002260  0.70025360    -0.04900
C491        C  0.19088651  0.99905791  0.69261009    -0.02000
C492        C  0.22203575  0.00498614  0.70801129     0.02970
C493        C  0.16500866  0.51221875  0.76329739     0.37620
C494        C  0.19852744  0.99484786  0.66824856     0.37610
C495        C  0.25676789  0.02077864  0.69735865     0.36040
C496        C  0.10449683  0.51085645  0.73094231     0.36040
N497        N  0.28307265  0.03420398  0.68789398    -0.38780
N498        N  0.07236366  0.51429753  0.73685285    -0.38780
N499        N  0.20450921  0.99152851  0.64889220    -0.38230
N500        N  0.15303039  0.51680546  0.78157965    -0.38230
C501        C  0.24726001  0.03394609  0.76830503    -0.04900
C502        C  0.24483777  0.07368553  0.76036866    -0.02010
C503        C  0.24520194  0.10559070  0.77587397     0.02970
C504        C  0.24735057  0.09931037  0.79949625    -0.04900
C505        C  0.24625530  0.06136610  0.80787877    -0.02000
C506        C  0.24226800  0.02956549  0.79286377     0.02970
C507        C  0.24275018  0.08362060  0.73637602     0.37620
C508        C  0.24714868  0.05516216  0.83252929     0.37610
C509        C  0.22596248  0.99544865  0.80376641     0.36040
C510        C  0.24509704  0.14534085  0.76746174     0.36040
N511        N  0.21196841  0.96997221  0.81362657    -0.38780
N512        N  0.24521194  0.17698769  0.76072811    -0.38780
N513        N  0.24783259  0.05036143  0.85209798    -0.38230
N514        N  0.24041711  0.09501898  0.71781736    -0.38230
C515        C  0.25230206  0.45811284  0.76520113    -0.04900
C516        C  0.28514476  0.45032262  0.78026729    -0.02010
C517        C  0.28598197  0.41818324  0.79531281     0.02970
C518        C  0.25354069  0.39355330  0.79719840    -0.04900
C519        C  0.22286397  0.39780010  0.78125532    -0.02000
C520        C  0.22248223  0.42861910  0.76498054     0.02970
C521        C  0.31730304  0.47709424  0.78315337     0.37620
C522        C  0.19178837  0.36930059  0.78115773     0.37610
C523        C  0.19205374  0.42650756  0.74779225     0.36040
C524        C  0.31997842  0.41258059  0.81011296     0.36040
N525        N  0.16774112  0.42184616  0.73428763    -0.38780
N526        N  0.34719632  0.40851328  0.82172457    -0.38780
N527        N  0.16716502  0.34650498  0.78111777    -0.38230
N528        N  0.34423349  0.49584355  0.78744962    -0.38230
C529        C  0.04481512  0.25125803  0.02207257    -0.04900
C530        C  0.04132175  0.28006494  0.03942373    -0.02010
C531        C  0.06792355  0.28053460  0.05804982     0.02970
C532        C  0.10064074  0.25502288  0.05845547    -0.04900
C533        C  0.10625959  0.22906375  0.04020976    -0.02000
C534        C  0.07738854  0.22502922  0.02323302     0.02970
C535        C  0.01276795  0.31138925  0.03751462     0.37620
C536        C  0.14372356  0.20923366  0.03756062     0.37610
C537        C  0.08168432  0.19269151  0.00750222     0.36040
C538        C  0.06170019  0.30767500  0.07668755     0.36040
N539        N  0.08649890  0.16606683  0.99570441    -0.38780
N540        N  0.05667622  0.32930886  0.09156223    -0.38780
N541        N  0.17407063  0.19464293  0.03499228    -0.38230
N542        N  0.99086556  0.33723479  0.03630195    -0.38230
C543        C  0.45456867  0.25163019  0.02351471    -0.04900
C544        C  0.42220135  0.27796977  0.02512428    -0.02010
C545        C  0.39444832  0.27416090  0.04262911     0.02970
C546        C  0.40128166  0.24838124  0.06087122    -0.04900
C547        C  0.43417755  0.22315905  0.06014828    -0.02000
C548        C  0.45949852  0.22331868  0.04103784     0.02970
C549        C  0.41666108  0.30953013  0.00892387     0.37620
C550        C  0.44165327  0.19641729  0.07887216     0.37610
C551        C  0.48768272  0.19178660  0.03862471     0.36040
C552        C  0.35666160  0.29356815  0.04041319     0.36040
N553        N  0.50933908  0.16582110  0.03698961    -0.38780
N554        N  0.32602377  0.30776771  0.03819520    -0.38780
N555        N  0.44763755  0.17512964  0.09383160    -0.38230
N556        N  0.41111775  0.33537900  0.99661788    -0.38230
C557        C  0.04097429  0.25285122  0.97862310    -0.04900
C558        C  0.04044214  0.22183447  0.96266182    -0.02010
C559        C  0.06623496  0.22165753  0.94375953     0.02970
C560        C  0.09160808  0.25331182  0.93987949    -0.04900
C561        C  0.08820809  0.28633140  0.95421664    -0.02000
C562        C  0.06569078  0.28483419  0.97428407     0.02970
C563        C  0.01613474  0.18820535  0.96660523     0.37620
C564        C  0.10626209  0.32289990  0.94815752     0.37610
C565        C  0.06814294  0.31705452  0.99025316     0.36040
C566        C  0.06551855  0.18914964  0.92797603     0.36040
N567        N  0.07104808  0.34334784  0.00245104    -0.38780
N568        N  0.06472182  0.16318643  0.91541269    -0.38780
N569        N  0.11939015  0.35259590  0.94319528    -0.38230
N570        N  0.99742046  0.16083547  0.96951836    -0.38230
C571        C  0.39857773  0.24710956  0.94303833    -0.04900
C572        C  0.42965842  0.27379761  0.94323926    -0.02010
C573        C  0.45478487  0.27615236  0.96238013     0.02970
C574        C  0.45319855  0.24775134  0.98001751    -0.04900
C575        C  0.42306564  0.21953947  0.97882623    -0.02000
C576        C  0.39425962  0.22163849  0.96161475     0.02970
C577        C  0.43536693  0.29977027  0.92400332     0.37620
C578        C  0.42061959  0.18825897  0.99538529     0.37610
C579        C  0.35765271  0.20143932  0.96473795     0.36040
C580        C  0.47784206  0.31094939  0.96489910     0.36040
N581        N  0.32782099  0.18683926  0.96785739    -0.38780
N582        N  0.49434736  0.34002989  0.96633034    -0.38780
N583        N  0.41782166  0.16271351  0.00813426    -0.38230
N584        N  0.44004884  0.32041156  0.90865613    -0.38230
C585        C  0.28575540  0.00534746  0.26743471    -0.04900
C586        C  0.28237431  0.50789417  0.29209892    -0.02010
C587        C  0.31522477  0.50260396  0.30627644     0.02970
C588        C  0.35282328  0.00321656  0.29707806    -0.04900
C589        C  0.35787201  0.00866245  0.27360383    -0.02000
C590        C  0.32500326  0.00975648  0.25876377     0.02970
C591        C  0.24813987  0.52281359  0.30405435     0.37620
C592        C  0.39735438  0.01076939  0.26457466     0.37610
C593        C  0.33351202  0.01410450  0.23469262     0.36040
C594        C  0.31041013  0.49874184  0.33093099     0.36040
N595        N  0.34360357  0.01833463  0.21601343    -0.38780
N596        N  0.30671691  0.49566152  0.35049410    -0.38780
N597        N  0.42877443  0.01229632  0.25734387    -0.38230
N598        N  0.22246707  0.53556769  0.31464392    -0.38230
C599        C  0.14585189  0.99448166  0.29763689    -0.04900
C600        C  0.14812307  0.02564293  0.28209419    -0.02010
C601        C  0.17877068  0.02752196  0.26578616     0.02970
C602        C  0.20974552  0.99854214  0.26540942    -0.04900
C603        C  0.20380656  0.46501365  0.27992425    -0.02000
C604        C  0.17221321  0.46305869  0.29534029     0.02970
C605        C  0.11774929  0.05566195  0.28235126     0.37620
C606        C  0.23173750  0.43298264  0.28159463     0.37610
C607        C  0.16900147  0.42914099  0.31014523     0.36040
C608        C  0.17485976  0.05843147  0.24906808     0.36040
N609        N  0.16685391  0.40204389  0.32179780    -0.38780
N610        N  0.16893782  0.08308646  0.23597583    -0.38780
N611        N  0.25150339  0.40593113  0.28472336    -0.38230
N612        N  0.09363685  0.07957818  0.28235822    -0.38230
C613        C  0.25122472  0.03662232  0.23304288    -0.04900
C614        C  0.25532972  0.07620885  0.24092528    -0.02010
C615        C  0.25440065  0.10797534  0.22542154     0.02970
C616        C  0.24753362  0.10173918  0.20213593    -0.04900
C617        C  0.24561163  0.06386352  0.19375723    -0.02000
C618        C  0.25249272  0.03208519  0.20838852     0.02970
C619        C  0.25968309  0.08613893  0.26482283     0.37620
C620        C  0.23995936  0.05763088  0.16933042     0.37610
C621        C  0.26871447  0.99826588  0.19673664     0.36040
C622        C  0.25918307  0.14759497  0.23351005     0.36040
N623        N  0.28251937  0.47297601  0.18635243    -0.38780
N624        N  0.26301394  0.17914150  0.23994517    -0.38780
N625        N  0.23551933  0.05279945  0.14993484    -0.38230
N626        N  0.26369650  0.09728393  0.28332067    -0.38230
C627        C  0.24635710  0.39614501  0.20502719    -0.04900
C628        C  0.27760216  0.40010528  0.22053169    -0.02010
C629        C  0.27849368  0.43132842  0.23637406     0.02970
C630        C  0.24808745  0.46093008  0.23649609    -0.04900
C631        C  0.21436877  0.45307065  0.22232235    -0.02000
C632        C  0.21395126  0.42166165  0.20682330     0.02970
C633        C  0.30916232  0.37129229  0.22049980     0.37620
C634        C  0.18060446  0.47907621  0.22104235     0.37610
C635        C  0.18085276  0.41826263  0.19120868     0.36040
C636        C  0.30983704  0.42908907  0.25306472     0.36040
N637        N  0.15443905  0.41609356  0.17887028    -0.38780
N638        N  0.33490907  0.42425442  0.26614722    -0.38780
N639        N  0.15236503  0.49745660  0.21840871    -0.38230
N640        N  0.33445870  0.34861846  0.22055761    -0.38230
C641        C  0.24900281  0.00075650  0.25060195    -0.02050
C642        C  0.47811619  0.75037603  0.00154719     0.01000
C643        C  0.01873745  0.75115726  0.00093469     0.01000
C644        C  0.25162434  0.99785409  0.75077741    -0.02050
C645        C  0.99772730  0.75224973  0.75049536    -0.02050
C646        C  0.25146355  0.97856343  0.00183343     0.01000
C647        C  0.25149046  0.51899679  0.00119059     0.01000
N648        N  0.22990001  0.83379199  0.89768792    -0.05680
N649        N  0.21707766  0.85720571  0.91401869    -0.57800
N650        N  0.26833957  0.83105873  0.84496737    -0.05360
N651        N  0.28286127  0.85032774  0.82760420    -0.59930
N652        N  0.22998552  0.83296789  0.84470617    -0.04960
N653        N  0.21771249  0.85428339  0.82719357    -0.57770
N654        N  0.26836491  0.83283062  0.89758873    -0.04630
N655        N  0.28252500  0.85560683  0.91370189    -0.60280
C656        C  0.25025891  0.87063478  0.92386716     0.96500
C657        C  0.25120554  0.86494894  0.81655613     0.96280
N658        N  0.33191677  0.72902552  0.84489891    -0.05860
N659        N  0.35422430  0.71597358  0.82818085    -0.58380
N660        N  0.33234098  0.76614624  0.89764759    -0.03980
N661        N  0.35529595  0.77943942  0.91392476    -0.59630
N662        N  0.33250828  0.72785533  0.89756837    -0.05890
N663        N  0.35567844  0.71434683  0.91394454    -0.58640
N664        N  0.33232569  0.76716399  0.84548138    -0.03630
N665        N  0.35504833  0.78095216  0.82931839    -0.59720
Mn666      Mn  0.30100110  0.80000506  0.87155166     1.18440
C667        C  0.36840210  0.74871442  0.81857724     0.98580
C668        C  0.36966709  0.74691420  0.92398791     0.99240
N669        N  0.16471268  0.76957890  0.84510353    -0.05910
N670        N  0.14154924  0.78343594  0.82893596    -0.62220
N671        N  0.16330633  0.73095703  0.89729964    -0.04720
N672        N  0.13772319  0.71861038  0.91249986    -0.62900
N673        N  0.16363061  0.76926760  0.89700331    -0.05420
N674        N  0.13833467  0.78342829  0.91185642    -0.62490
N675        N  0.16409818  0.73135308  0.84526088    -0.04320
N676        N  0.14044122  0.71839489  0.82926258    -0.63180
Mn677      Mn  0.19622340  0.80234719  0.87121394     1.10660
C678        C  0.12676868  0.75116215  0.81915375     0.99800
C679        C  0.12224255  0.75171409  0.92153015     0.99880
N680        N  0.26738182  0.66234915  0.89618405    -0.05430
N681        N  0.28145302  0.63680631  0.91092614    -0.60800
N682        N  0.22856031  0.66602394  0.84395413    -0.04750
N683        N  0.21495604  0.64485175  0.82691905    -0.57530
N684        N  0.26704426  0.66566853  0.84380373    -0.06060
N685        N  0.28036399  0.64418277  0.82673275    -0.60370
N686        N  0.22892686  0.66273928  0.89668164    -0.05040
N687        N  0.21627082  0.63736212  0.91192038    -0.57550
Mn688      Mn  0.30056219  0.69540303  0.87070605     1.20190
Mn689      Mn  0.19538478  0.69690362  0.87101990     1.10090
Cl690      Cl  0.24821014  0.74858842  0.87139380    -0.85520
C691        C  0.24948442  0.62125088  0.92077282     0.96810
C692        C  0.24756563  0.63203012  0.81604429     0.96610
N693        N  0.16664516  0.73239115  0.15659607    -0.05680
N694        N  0.14779243  0.71824283  0.17420032    -0.57800
N695        N  0.16639181  0.77209814  0.10442489    -0.05360
N696        N  0.14313124  0.78643129  0.08834518    -0.59930
N697        N  0.16637897  0.73381306  0.10400870    -0.04960
N698        N  0.14315395  0.72136614  0.08757561    -0.57770
N699        N  0.16614301  0.77050051  0.15715560    -0.04630
N700        N  0.14655509  0.78297361  0.17524533    -0.60280
C701        C  0.13536975  0.74984945  0.18590483     0.96500
C702        C  0.12888963  0.75445438  0.07791356     0.96280
N703        N  0.27139808  0.83536623  0.10661153    -0.05860
N704        N  0.28587046  0.86052236  0.09197660    -0.58380
N705        N  0.23091748  0.83257304  0.15824633    -0.03980
N706        N  0.21645192  0.85312360  0.17522485    -0.59630
N707        N  0.26929629  0.83290563  0.15873686    -0.05890
N708        N  0.28166095  0.85440929  0.17593836    -0.58640
N709        N  0.23292631  0.83627696  0.10591893    -0.03630
N710        N  0.22066206  0.86201885  0.09064803    -0.59720
Mn711      Mn  0.19815548  0.80373776  0.13124960     1.18440
C712        C  0.25402250  0.87711520  0.08203263     0.98580
C713        C  0.24823914  0.86680999  0.18619264     0.99240
N714        N  0.23114872  0.66615119  0.10489634    -0.05910
N715        N  0.21749696  0.64168641  0.08956061    -0.62220
N716        N  0.26812876  0.66690781  0.15794646    -0.04720
N717        N  0.28090249  0.64592175  0.17534592    -0.62900
N718        N  0.22970222  0.66742981  0.15732630    -0.05420
N719        N  0.21546834  0.64662367  0.17427203    -0.62490
N720        N  0.26961262  0.66489209  0.10526258    -0.04320
N721        N  0.28267174  0.63957197  0.08997568    -0.63180
Mn722      Mn  0.19758441  0.69921864  0.13046014     1.10660
C723        C  0.24979431  0.62511607  0.08021357     0.99800
C724        C  0.24776138  0.63406825  0.18560153     0.99880
N725        N  0.33314021  0.76736698  0.15921569    -0.05430
N726        N  0.35446178  0.78038990  0.17632026    -0.60800
N727        N  0.33589169  0.72951958  0.10641229    -0.04750
N728        N  0.35922961  0.71584507  0.09027696    -0.57530
N729        N  0.33608234  0.76782228  0.10660145    -0.06060
N730        N  0.35945000  0.78094434  0.09050611    -0.60370
N731        N  0.33338900  0.72915103  0.15896148    -0.05040
N732        N  0.35511291  0.71535931  0.17589451    -0.57550
Mn733      Mn  0.30344141  0.80162258  0.13267182     1.20190
Mn734      Mn  0.30269794  0.69671395  0.13198765     1.10090
Cl735      Cl  0.25050616  0.75033294  0.13124016    -0.85520
C736        C  0.36736869  0.74769420  0.18682964     0.96810
C737        C  0.37370166  0.74825017  0.08048154     0.96610
N738        N  0.08469415  0.51878211  0.65588895    -0.05680
N739        N  0.10592412  0.53197565  0.67302629    -0.57800
N740        N  0.08661931  0.98265211  0.60256978    -0.05360
N741        N  0.11247658  0.97089590  0.58712865    -0.59930
N742        N  0.08538539  0.52089473  0.60345634    -0.04960
N743        N  0.11036915  0.53566622  0.58878594    -0.57770
N744        N  0.08611441  0.98051208  0.65526555    -0.04630
N745        N  0.10858991  0.96696120  0.67196988    -0.60280
C746        C  0.12012443  0.49938891  0.68314282     0.96500
C747        C  0.12711114  0.50438678  0.57852455     0.96280
N748        N  0.48133205  0.91767067  0.60255510    -0.05860
N749        N  0.46670088  0.89309096  0.58763779    -0.58380
N750        N  0.02219754  0.91516323  0.65424283    -0.03980
N751        N  0.03574346  0.89174779  0.67041799    -0.59630
N752        N  0.48376423  0.91593136  0.65446384    -0.05890
N753        N  0.47031418  0.89350747  0.67077981    -0.58640
N754        N  0.01988262  0.91679536  0.60183951    -0.03630
N755        N  0.03192199  0.89160298  0.58616818    -0.59720
Mn756      Mn  0.05470238  0.94786367  0.62828446     1.18440
C757        C  0.49833060  0.87707559  0.57732229     0.98580
C758        C  0.50289975  0.87856640  0.68059887     0.99240
N759        N  0.01611895  0.58499261  0.60444117    -0.05910
N760        N  0.02778167  0.60773360  0.58765213    -0.62220
N761        N  0.48102052  0.58294429  0.65730938    -0.04720
N762        N  0.46742630  0.60778043  0.67242501    -0.62900
N763        N  0.01936507  0.58350988  0.65683621    -0.05420
N764        N  0.03258513  0.60854792  0.67201788    -0.62490
N765        N  0.47759265  0.58526649  0.60559556    -0.04320
N766        N  0.46238404  0.60826981  0.58971234    -0.63180
Mn767      Mn  0.05219515  0.55278974  0.63001717     1.10660
C768        C  0.49399724  0.62209204  0.57864158     0.99800
C769        C  0.49971350  0.62350673  0.68168974     0.99880
N770        N  0.41946533  0.97901791  0.65770178    -0.05430
N771        N  0.40054772  0.96322442  0.67486487    -0.60800
N772        N  0.41262334  0.52142964  0.60669013    -0.04750
N773        N  0.38821545  0.53672678  0.59159732    -0.57530
N774        N  0.41372288  0.98332841  0.60503911    -0.06060
N775        N  0.38994629  0.97182345  0.58859191    -0.60370
N776        N  0.41820078  0.51711811  0.65912144    -0.05040
N777        N  0.39781822  0.52798541  0.67730516    -0.57550
Mn778      Mn  0.44887097  0.94840865  0.62963696     1.20190
Mn779      Mn  0.44664421  0.55228965  0.63226204     1.10090
Cl780      Cl  0.50078913  0.50029736  0.62959609    -0.85520
C781        C  0.38700667  0.49387341  0.68705066     0.96810
C782        C  0.37403778  0.50552048  0.58053541     0.96610
N783        N  0.48060847  0.91644156  0.34319653    -0.05680
N784        N  0.46742161  0.89609383  0.32576428    -0.57800
N785        N  0.01600761  0.91418682  0.39669079    -0.05360
N786        N  0.02821065  0.89063326  0.41310907    -0.59930
N787        N  0.47747722  0.91522213  0.39591653    -0.04960
N788        N  0.46281390  0.89229374  0.41181470    -0.57770
N789        N  0.01898981  0.91501512  0.34396907    -0.04630
N790        N  0.03276721  0.89336283  0.32710530    -0.60280
C791        C  0.50025303  0.88243859  0.31563559     0.96500
C792        C  0.49480485  0.87719152  0.42248684     0.96280
N793        N  0.08381008  0.51577078  0.39779553    -0.05860
N794        N  0.10909448  0.52891114  0.41287221    -0.58380
N795        N  0.08374362  0.97765747  0.34515153    -0.03980
N796        N  0.10345833  0.96370740  0.32762801    -0.59630
N797        N  0.08521048  0.51578619  0.34540854    -0.05890
N798        N  0.10639036  0.52849123  0.32817000    -0.58640
N799        N  0.08412876  0.97750487  0.39770377    -0.03630
N800        N  0.11001700  0.96409754  0.41271086    -0.59720
Mn801      Mn  0.05158363  0.94509615  0.37108255     1.18440
C802        C  0.12555231  0.49655471  0.42211391     0.98580
C803        C  0.11760035  0.49561850  0.31711628     0.99240
N804        N  0.41201087  0.98278822  0.39348140    -0.05910
N805        N  0.38486681  0.97088934  0.40781814    -0.62220
N806        N  0.41953298  0.52027737  0.34101518    -0.04720
N807        N  0.39929512  0.53415782  0.32356501    -0.62900
N808        N  0.41840303  0.98210197  0.34130178    -0.05420
N809        N  0.39734609  0.96919223  0.32404934    -0.62490
N810        N  0.41295656  0.52099684  0.39314126    -0.04320
N811        N  0.38665094  0.53561042  0.40724009    -0.63180
Mn812      Mn  0.44628669  0.94821974  0.36871539     1.10660
C813        C  0.36897615  0.50418825  0.41631254     0.99800
C814        C  0.38631651  0.50195279  0.31287892     0.99880
N815        N  0.02252049  0.58126037  0.34410100    -0.05430
N816        N  0.03780499  0.60137248  0.32727085    -0.60800
N817        N  0.48011727  0.58421096  0.39530210    -0.04750
N818        N  0.46561529  0.60860848  0.41055741    -0.57530
N819        N  0.01857022  0.58306115  0.39660160    -0.06060
N820        N  0.03089390  0.60665973  0.41286636    -0.60370
N821        N  0.48422387  0.58290888  0.34311132    -0.05040
N822        N  0.47263379  0.60465360  0.32575052    -0.57550
Mn823      Mn  0.05333973  0.54975448  0.37123702     1.20190
Mn824      Mn  0.44843692  0.55290025  0.36825741     1.10090
Cl825      Cl  0.49988485  0.49894176  0.37043300    -0.85520
C826        C  0.50642515  0.61590265  0.31586908     0.96810
C827        C  0.49750782  0.62237026  0.42151594     0.96610
C828        C  0.99382981  0.76858987  0.50013772     0.01000
C829        C  0.99339068  0.72812827  0.49980806     0.01000
C830        C  0.27454136  0.01052853  0.49862619     0.01000
C831        C  0.23378280  0.00909310  0.49975959     0.01000
C832        C  0.00285515  0.74884516  0.25110989    -0.02050
C833        C  0.99771837  0.78454070  0.26856231    -0.04900
C834        C  0.49172847  0.82387798  0.26054802    -0.02010
C835        C  0.49170531  0.85579685  0.27595828     0.02970
C836        C  0.49968083  0.84984833  0.29922199    -0.04900
C837        C  0.00249886  0.81199715  0.30772606    -0.02000
C838        C  0.99651109  0.78008968  0.29318627     0.02970
C839        C  0.48718140  0.83316261  0.23653678     0.37620
C840        C  0.00852902  0.80587794  0.33213905     0.37610
C841        C  0.98172324  0.74598377  0.30483265     0.36040
C842        C  0.48525942  0.89521445  0.26773609     0.36040
N843        N  0.96904267  0.72037819  0.31518650    -0.38780
N844        N  0.48006211  0.92661274  0.26118045    -0.38780
N845        N  0.01331709  0.80112615  0.35152554    -0.38230
N846        N  0.48309060  0.84298312  0.21776281    -0.38230
C847        C  0.50858828  0.64441424  0.29666678    -0.04900
C848        C  0.04043348  0.66980913  0.29492345    -0.02010
C849        C  0.03889608  0.70178429  0.27979924     0.02970
C850        C  0.00535419  0.70905865  0.26521447    -0.04900
C851        C  0.47659959  0.67864308  0.26465666    -0.02000
C852        C  0.47767459  0.64798159  0.28082741     0.02970
C853        C  0.07407933  0.66538277  0.31007803     0.37620
C854        C  0.44737534  0.67480861  0.24681936     0.37610
C855        C  0.44664996  0.61936699  0.28082072     0.36040
C856        C  0.07121671  0.72867426  0.28166694     0.36040
N857        N  0.42164901  0.59698259  0.28077857    -0.38780
N858        N  0.09824247  0.74802648  0.28457510    -0.38780
N859        N  0.42420143  0.66898619  0.23280020    -0.38230
N860        N  0.10096875  0.66225873  0.32203489    -0.38230
C861        C  0.49564858  0.65149159  0.44050107    -0.04900
C862        C  0.02447399  0.68043439  0.44294581    -0.02010
C863        C  0.02324335  0.70667999  0.46158667     0.02970
C864        C  0.99222598  0.70534598  0.47764158    -0.04900
C865        C  0.46265269  0.67717519  0.47453850    -0.02000
C866        C  0.46486841  0.65010334  0.45651809     0.02970
C867        C  0.05611148  0.68293787  0.42655570     0.37620
C868        C  0.42969661  0.67522029  0.49010477     0.37610
C869        C  0.43694152  0.61870308  0.45578933     0.36040
C870        C  0.05656716  0.73151740  0.46553518     0.36040
N871        N  0.41506649  0.59331976  0.45564191    -0.38780
N872        N  0.08399992  0.75027258  0.46847853    -0.38780
N873        N  0.40291706  0.67304917  0.50207103    -0.38230
N874        N  0.08148580  0.68495242  0.41357575    -0.38230
C875        C  0.99541532  0.79351083  0.47855897    -0.04900
C876        C  0.02377457  0.82342833  0.47701170    -0.02010
C877        C  0.02129633  0.85201193  0.45978416     0.02970
C878        C  0.49398425  0.84878561  0.44185977    -0.04900
C879        C  0.46664080  0.81831027  0.44255474    -0.02000
C880        C  0.46607992  0.79208400  0.46126475     0.02970
C881        C  0.05633381  0.82542902  0.49290620     0.37620
C882        C  0.43853104  0.81405564  0.42413157     0.37610
C883        C  0.43278666  0.76671455  0.46344037     0.36040
C884        C  0.04439109  0.88698654  0.46189204     0.36040
N885        N  0.40501834  0.74792781  0.46466840    -0.38780
N886        N  0.06168825  0.91547257  0.46401837    -0.38780
N887        N  0.41611983  0.81058871  0.40943824    -0.38230
N888        N  0.08311297  0.82806546  0.50492779    -0.38230
C889        C  0.15761579  0.49743118  0.43980088    -0.04900
C890        C  0.18018171  0.53137431  0.44287990    -0.02010
C891        C  0.20583486  0.53490380  0.46173863     0.02970
C892        C  0.20940622  0.00458131  0.47813036    -0.04900
C893        C  0.18848379  0.96978847  0.47417595    -0.02000
C894        C  0.16488897  0.96547704  0.45447602     0.02970
C895        C  0.17832364  0.56272204  0.42622532     0.37620
C896        C  0.19010855  0.93800924  0.49043934     0.37610
C897        C  0.14983427  0.92734334  0.44899186     0.36040
C898        C  0.22534661  0.57170639  0.46484478     0.36040
N899        N  0.13915039  0.89647064  0.44446048    -0.38780
N900        N  0.23851301  0.60242135  0.46654287    -0.38780
N901        N  0.19020768  0.91186270  0.50289617    -0.38230
N902        N  0.17712284  0.58778550  0.41302425    -0.38230
C903        C  0.33792555  0.50633192  0.43442976    -0.04900
C904        C  0.31944913  0.97244694  0.44284454    -0.02010
C905        C  0.29625677  0.97432564  0.46283531     0.02970
C906        C  0.29354701  0.00941568  0.47546051    -0.04900
C907        C  0.31209507  0.54283535  0.46697857    -0.02000
C908        C  0.32943092  0.54226859  0.44526035     0.02970
C909        C  0.32519756  0.93508096  0.43175911     0.37620
C910        C  0.31567016  0.57733285  0.48107188     0.37610
C911        C  0.33624246  0.57899142  0.43383957     0.36040
C912        C  0.28226284  0.93843992  0.47275607     0.36040
N913        N  0.34076262  0.60833302  0.42456866    -0.38780
N914        N  0.27283766  0.90913657  0.48060426    -0.38940
N915        N  0.31898466  0.60488001  0.49223043    -0.38230
N916        N  0.32983233  0.90502825  0.42321685    -0.38230
C917        C  0.21003029  0.00978137  0.52173871    -0.04900
C918        C  0.18067455  0.53892901  0.52506794    -0.02010
C919        C  0.15681039  0.53891872  0.54468930     0.02970
C920        C  0.15736480  0.50700226  0.55989617    -0.04900
C921        C  0.18695873  0.97815352  0.55703762    -0.02000
C922        C  0.21385845  0.98022288  0.53858234     0.02970
C923        C  0.17473798  0.57056914  0.50900615     0.37620
C924        C  0.19108037  0.94713561  0.57367943     0.37610
C925        C  0.24464145  0.95102306  0.53674264     0.36040
C926        C  0.13286509  0.57314708  0.54942619     0.36040
N927        N  0.26922673  0.92768456  0.53552702    -0.38780
N928        N  0.11522850  0.60127718  0.55335388    -0.38780
N929        N  0.19453998  0.92243066  0.58699124    -0.38230
N930        N  0.16744511  0.59704157  0.49747548    -0.38230
C931        C  0.34939448  0.50858249  0.55971427    -0.04900
C932        C  0.31442397  0.53065288  0.55941983    -0.02010
C933        C  0.29319895  0.53558628  0.53881071     0.02970
C934        C  0.30239702  0.01271204  0.51926504    -0.04900
C935        C  0.34002094  0.99338097  0.51940736    -0.02000
C936        C  0.36363240  0.99315418  0.53920635     0.02970
C937        C  0.30041996  0.54874680  0.58027292     0.37620
C938        C  0.35742528  0.97521188  0.49950125     0.37610
C939        C  0.40428957  0.98009858  0.53802454     0.36040
C940        C  0.26695351  0.56877818  0.53698643     0.36040
N941        N  0.43685128  0.97063262  0.53701881    -0.38780
N942        N  0.24737283  0.59641748  0.53601344    -0.38780
N943        N  0.37422236  0.96091895  0.48448343    -0.38230
N944        N  0.28909498  0.56285070  0.59697786    -0.38230
C945        C  0.99407335  0.70269467  0.52129145    -0.04900
C946        C  0.96656344  0.70740002  0.53937242    -0.02010
C947        C  0.96810614  0.68271722  0.55877556     0.02970
C948        C  0.49225339  0.64916258  0.55876604    -0.04900
C949        C  0.51512533  0.64114722  0.53945434    -0.02000
C950        C  0.51928894  0.66926044  0.52217525     0.02970
C951        C  0.93353914  0.73389186  0.53730684     0.37620
C952        C  0.53067492  0.60210097  0.53604189     0.37610
C953        C  0.55029821  0.66283551  0.50571085     0.36040
C954        C  0.94430059  0.69164800  0.57860936     0.36040
N955        N  0.57570883  0.65627635  0.49321079    -0.38780
N956        N  0.92553239  0.69893077  0.59450078    -0.38780
N957        N  0.54165110  0.57056247  0.53298084    -0.38230
N958        N  0.90586645  0.75352434  0.53626021    -0.38230
C959        C  0.49585834  0.84657733  0.55900285    -0.04900
C960        C  0.46364267  0.84643599  0.54375482    -0.02010
C961        C  0.46287472  0.82062121  0.52507553     0.02970
C962        C  0.99278756  0.79208918  0.52207583    -0.04900
C963        C  0.02337480  0.78996209  0.53849199    -0.02000
C964        C  0.02510067  0.81727313  0.55662582     0.02970
C965        C  0.43042418  0.87251063  0.54709813     0.37620
C966        C  0.05500150  0.76183052  0.53587867     0.37610
C967        C  0.05667424  0.81434570  0.57316556     0.36040
C968        C  0.43028524  0.82367644  0.50915997     0.36040
N969        N  0.08184926  0.81182185  0.58636589    -0.38780
N970        N  0.40358438  0.82730556  0.49711360    -0.38780
N971        N  0.08063506  0.73979096  0.53396829    -0.38230
N972        N  0.40311642  0.89217147  0.54977063    -0.38230
C973        C  0.10872720  0.74789061  0.20619532    -0.04900
C974        C  0.10129359  0.78052189  0.22014460    -0.02010
C975        C  0.07117106  0.77988525  0.23681834     0.02970
C976        C  0.04312304  0.74874859  0.23721812    -0.04900
C977        C  0.05391862  0.71478765  0.22401399    -0.02000
C978        C  0.08835458  0.71348342  0.21090000     0.02970
C979        C  0.12597031  0.81448935  0.21822818     0.37620
C980        C  0.02887888  0.68127269  0.22139975     0.37610
C981        C  0.10176003  0.67618308  0.20187529     0.36040
C982        C  0.07339213  0.80993083  0.25409346     0.36040
N983        N  0.11230184  0.64627359  0.19503086    -0.38780
N984        N  0.07803850  0.83395864  0.26765514    -0.38780
N985        N  0.01152611  0.65323401  0.21778698    -0.38230
N986        N  0.14546185  0.84167476  0.21691014    -0.38230
C987        C  0.40043616  0.74788011  0.20311083    -0.04900
C988        C  0.43843742  0.74681402  0.19447197    -0.02010
C989        C  0.47070183  0.75292069  0.20899559     0.02970
C990        C  0.46658544  0.75166596  0.23365008    -0.04900
C991        C  0.42677566  0.75510345  0.24177753    -0.02000
C992        C  0.39448083  0.75378581  0.22649944     0.02970
C993        C  0.44419686  0.74187462  0.16995924     0.37620
C994        C  0.41718056  0.75862854  0.26576548     0.37610
C995        C  0.35462677  0.75676503  0.23496458     0.36040
C996        C  0.50490443  0.76728274  0.19718870     0.36040
N997        N  0.32290038  0.75910882  0.24171903    -0.38780
N998        N  0.53038835  0.77953269  0.18649153    -0.38780
N999        N  0.40626209  0.76195668  0.28436202    -0.38230
N1000       N  0.44863082  0.73792793  0.15049969    -0.38230
C1001       C  0.24902074  0.59482388  0.06156491    -0.04900
C1002       C  0.28154633  0.56979852  0.05756012    -0.02010
C1003       C  0.28181448  0.54372935  0.03877365     0.02970
C1004       C  0.25033812  0.54348175  0.02285762    -0.04900
C1005       C  0.21781263  0.56847576  0.02710456    -0.02000
C1006       C  0.21588069  0.59117279  0.04717047     0.02970
C1007       C  0.31456756  0.56953264  0.07321125     0.37620
C1008       C  0.18548462  0.57148095  0.01105718     0.37610
C1009       C  0.17861164  0.60892952  0.05327578     0.36040
C1010       C  0.31642355  0.51979852  0.03517429     0.36040
N1011       N  0.14837710  0.62179813  0.05826587    -0.38780
N1012       N  0.34524952  0.50228227  0.03285615    -0.38780
N1013       N  0.15885086  0.57535254  0.99898246    -0.38230
N1014       N  0.34096110  0.56908446  0.08564320    -0.38230
C1015       C  0.25548713  0.90761728  0.06367966    -0.04900
C1016       C  0.28857264  0.91055979  0.04933966    -0.02010
C1017       C  0.28637160  0.93213403  0.02890209     0.02970
C1018       C  0.25371572  0.95674449  0.02429334    -0.04900
C1019       C  0.22261618  0.95782643  0.04030365    -0.02000
C1020       C  0.22316848  0.93287002  0.05955022     0.02970
C1021       C  0.32581546  0.89299882  0.05577171     0.37620
C1022       C  0.18766531  0.98097291  0.03592822     0.37610
C1023       C  0.19058550  0.93420655  0.07539562     0.36040
C1024       C  0.31814325  0.92808741  0.01264092     0.36040
N1025       N  0.16456278  0.93547787  0.08799242    -0.38780
N1026       N  0.34412867  0.92372577  0.00023664    -0.38780
N1027       N  0.15866753  0.99791918  0.03289750    -0.38230
N1028       N  0.35601461  0.88022563  0.06101681    -0.38230
C1029       C  0.25116040  0.59137411  0.93958850    -0.04900
C1030       C  0.21950738  0.56619607  0.94403436    -0.02010
C1031       C  0.22065626  0.54046907  0.96302941     0.02970
C1032       C  0.25187313  0.54199713  0.97905495    -0.04900
C1033       C  0.28324497  0.56750044  0.97443847    -0.02000
C1034       C  0.28458795  0.58847577  0.95380429     0.02970
C1035       C  0.18628956  0.56533018  0.92858599     0.37620
C1036       C  0.31535776  0.57247351  0.99038224     0.37610
C1037       C  0.32163881  0.60498011  0.94689824     0.36040
C1038       C  0.18831352  0.51426932  0.96661054     0.36040
N1039       N  0.35165513  0.61681705  0.94123524    -0.38780
N1040       N  0.16206825  0.49381473  0.96924697    -0.38780
N1041       N  0.34195147  0.57837720  0.00210402    -0.38230
N1042       N  0.15974906  0.56447646  0.91628247    -0.38230
C1043       C  0.25029676  0.95271853  0.98061494    -0.04900
C1044       C  0.22348614  0.92123247  0.97954649    -0.02010
C1045       C  0.22613978  0.89309458  0.96208668     0.02970
C1046       C  0.25104036  0.89860504  0.94336240    -0.04900
C1047       C  0.27704477  0.93019430  0.94370633    -0.02000
C1048       C  0.27847249  0.95544468  0.96282159     0.02970
C1049       C  0.19226752  0.91683068  0.99600619     0.37620
C1050       C  0.30301055  0.93648399  0.92451892     0.37610
C1051       C  0.31191266  0.98062931  0.96492213     0.36040
C1052       C  0.20639659  0.85621725  0.96475731     0.36040
N1053       N  0.33996829  0.99903220  0.96604685    -0.38780
N1054       N  0.19198815  0.82626984  0.96737066    -0.38780
N1055       N  0.32364869  0.94159846  0.90919769    -0.38230
N1056       N  0.16642152  0.91149762  0.00830340    -0.38230
C1057       C  0.49852699  0.65580189  0.69872533    -0.04900
C1058       C  0.02843545  0.68345051  0.69951969    -0.02010
C1059       C  0.02764448  0.71369630  0.71583417     0.02970
C1060       C  0.49739237  0.71647078  0.73299913    -0.04900
C1061       C  0.46566454  0.68910538  0.73062607    -0.02000
C1062       C  0.46615336  0.66040168  0.71334414     0.02970
C1063       C  0.05978818  0.68215449  0.68274121     0.37620
C1064       C  0.42932444  0.69093812  0.74349722     0.37610
C1065       C  0.43099368  0.63769457  0.70949403     0.36040
C1066       C  0.06081905  0.73976530  0.71541242     0.36040
N1067       N  0.40219382  0.62129226  0.70608074    -0.38780
N1068       N  0.08858616  0.75852681  0.71396288    -0.38780
N1069       N  0.39930725  0.69091578  0.75264344    -0.38230
N1070       N  0.08480042  0.68142211  0.66945344    -0.38230
C1071       C  0.49870414  0.78909299  0.73366450    -0.04900
C1072       C  0.52873509  0.81867859  0.73339527    -0.02010
C1073       C  0.52778209  0.84926519  0.71718378     0.02970
C1074       C  0.50197782  0.84824206  0.69860751    -0.04900
C1075       C  0.97477579  0.81819731  0.69709754    -0.02000
C1076       C  0.97098222  0.79108844  0.71495591     0.02970
C1077       C  0.56405421  0.81752037  0.74714082     0.37620
C1078       C  0.95082764  0.81432066  0.67661179     0.37610
C1079       C  0.93618369  0.76734427  0.71383918     0.36040
C1080       C  0.55419988  0.88197533  0.71944804     0.36040
N1081       N  0.90703137  0.75099457  0.71155922    -0.38780
N1082       N  0.57508479  0.90802869  0.72134863    -0.38780
N1083       N  0.93197273  0.81102593  0.66028803    -0.38230
N1084       N  0.59339027  0.81797038  0.75706704    -0.38230
C1085       C  0.03382063  0.75102006  0.76795086    -0.04900
C1086       C  0.03477382  0.77901366  0.78641768    -0.02010
C1087       C  0.06393767  0.77757385  0.80344390     0.02970
C1088       C  0.09557336  0.75152355  0.80158709    -0.04900
C1089       C  0.09618481  0.72421215  0.78384290    -0.02000
C1090       C  0.06438080  0.72140664  0.76850814     0.02970
C1091       C  0.00793674  0.81202188  0.78777207     0.37620
C1092       C  0.12966007  0.69790156  0.78160801     0.37610
C1093       C  0.06318592  0.68492340  0.75606525     0.36040
C1094       C  0.06075342  0.80284284  0.82332887     0.36040
N1095       N  0.06366335  0.65484449  0.74715129    -0.38780
N1096       N  0.05801157  0.82278170  0.83918311    -0.38780
N1097       N  0.15611642  0.67684325  0.77976950    -0.38230
N1098       N  0.48858893  0.83957141  0.79013033    -0.38230
C1099       C  0.46108347  0.75200238  0.76739139    -0.04900
C1100       C  0.43043985  0.78139815  0.76828931    -0.02010
C1101       C  0.39884852  0.77801280  0.78372582     0.02970
C1102       C  0.39919521  0.74925560  0.80077328    -0.04900
C1103       C  0.43020046  0.72228060  0.80168718    -0.02000
C1104       C  0.45941881  0.72214463  0.78479764     0.02970
C1105       C  0.43124242  0.81774677  0.75569209     0.37620
C1106       C  0.43260226  0.69433922  0.82037482     0.37610
C1107       C  0.48513475  0.68821503  0.78489109     0.36040
C1108       C  0.36556528  0.80471095  0.78207002     0.36040
N1109       N  0.50301219  0.65952338  0.78633434    -0.38780
N1110       N  0.33911379  0.82590541  0.78060581    -0.38780
N1111       N  0.43467654  0.67210202  0.83519177    -0.38230
N1112       N  0.43062178  0.84758217  0.74648999    -0.38230
C1113       C  0.29223518  0.49490729  0.73706009    -0.04900
C1114       C  0.32406998  0.52222658  0.73823644    -0.02010
C1115       C  0.35736733  0.51800669  0.72389775     0.02970
C1116       C  0.35829415  0.49049888  0.70625631    -0.04900
C1117       C  0.33038072  0.96083782  0.70643613    -0.02000
C1118       C  0.29897140  0.96184966  0.72213253     0.02970
C1119       C  0.32600475  0.55386467  0.75449312     0.37620
C1120       C  0.33230344  0.92981557  0.68952272     0.37610
C1121       C  0.27189744  0.92981367  0.72021948     0.36040
C1122       C  0.39308768  0.53878652  0.72897062     0.36040
N1123       N  0.25274300  0.90281439  0.71704503    -0.38780
N1124       N  0.42210391  0.55384324  0.73368863    -0.38780
N1125       N  0.33347879  0.90504556  0.67614651    -0.38230
N1126       N  0.33049931  0.57911392  0.76728675    -0.38230
C1127       C  0.21629828  0.50256883  0.73255955    -0.04900
C1128       C  0.17608419  0.00733389  0.73962304    -0.02010
C1129       C  0.14482516  0.00651845  0.72350196     0.02970
C1130       C  0.15224412  0.50002289  0.70025379    -0.04900
C1131       C  0.19088209  0.49905820  0.69261020    -0.02000
C1132       C  0.22203146  0.50498643  0.70801133     0.02970
C1133       C  0.16501242  0.01221833  0.76329721     0.37620
C1134       C  0.19852286  0.49484816  0.66824866     0.37610
C1135       C  0.25676350  0.52077902  0.69735862     0.36040
C1136       C  0.10450091  0.01085614  0.73094197     0.36040
N1137       N  0.28306819  0.53420443  0.68789392    -0.38780
N1138       N  0.07236769  0.01429717  0.73685242    -0.38780
N1139       N  0.20450451  0.49152881  0.64889228    -0.38230
N1140       N  0.15303390  0.01680488  0.78157943    -0.38230
C1141       C  0.24725644  0.53394639  0.76830498    -0.04900
C1142       C  0.24483430  0.57368584  0.76036865    -0.02010
C1143       C  0.24519974  0.60559094  0.77587398     0.02970
C1144       C  0.24734936  0.59931046  0.79949623    -0.04900
C1145       C  0.24625345  0.56136620  0.80787873    -0.02000
C1146       C  0.24226498  0.52956576  0.79286374     0.02970
C1147       C  0.24274563  0.58362093  0.73637604     0.37620
C1148       C  0.24714743  0.55516211  0.83252922     0.37610
C1149       C  0.22595917  0.49544910  0.80376643     0.36040
C1150       C  0.24509534  0.64534110  0.76746178     0.36040
N1151       N  0.21196501  0.46997268  0.81362657    -0.38780
N1152       N  0.24521066  0.67698794  0.76072817    -0.38780
N1153       N  0.24783181  0.55036128  0.85209790    -0.38230
N1154       N  0.24041167  0.59501925  0.71781740    -0.38230
C1155       C  0.25230551  0.95811246  0.76520110    -0.04900
C1156       C  0.28514788  0.95032203  0.78026744    -0.02010
C1157       C  0.28598444  0.91818282  0.79531310     0.02970
C1158       C  0.25354290  0.89355313  0.79719852    -0.04900
C1159       C  0.22286658  0.89780005  0.78125519    -0.02000
C1160       C  0.22248549  0.92861890  0.76498032     0.02970
C1161       C  0.31730647  0.97709330  0.78315352     0.37620
C1162       C  0.19179070  0.86930084  0.78115747     0.37610
C1163       C  0.19205758  0.92650726  0.74779168     0.36040
C1164       C  0.31998046  0.91258015  0.81011359     0.36040
N1165       N  0.16774546  0.92184580  0.73428677    -0.38780
N1166       N  0.34719802  0.90851283  0.82172547    -0.38780
N1167       N  0.16716710  0.84650550  0.78111738    -0.38230
N1168       N  0.34423712  0.99584236  0.78744971    -0.38230
C1169       C  0.04481589  0.75125784  0.02207274    -0.04900
C1170       C  0.04132230  0.78006485  0.03942384    -0.02010
C1171       C  0.06792417  0.78053491  0.05804991     0.02970
C1172       C  0.10064160  0.75502350  0.05845559    -0.04900
C1173       C  0.10626060  0.72906424  0.04020995    -0.02000
C1174       C  0.07738953  0.72502932  0.02323325     0.02970
C1175       C  0.01276819  0.81138886  0.03751469     0.37620
C1176       C  0.14372468  0.70923434  0.03756086     0.37610
C1177       C  0.08168556  0.69269153  0.00750252     0.36040
C1178       C  0.06170065  0.80767539  0.07668757     0.36040
N1179       N  0.08650033  0.66606680  0.99570477    -0.38780
N1180       N  0.05667653  0.82930931  0.09156220    -0.38780
N1181       N  0.17407182  0.69464373  0.03499258    -0.38230
N1182       N  0.99086555  0.83723419  0.03630199    -0.38230
C1183       C  0.45456939  0.75162926  0.02351470    -0.04900
C1184       C  0.42220190  0.77796864  0.02512421    -0.02010
C1185       C  0.39444882  0.77415961  0.04262899     0.02970
C1186       C  0.40128219  0.74837996  0.06087111    -0.04900
C1187       C  0.43417813  0.72315785  0.06014818    -0.02000
C1188       C  0.45949927  0.72331770  0.04103781     0.02970
C1189       C  0.41666156  0.80952899  0.00892381     0.37620
C1190       C  0.44165377  0.69641596  0.07887200     0.37610
C1191       C  0.48768373  0.69178584  0.03862472     0.36040
C1192       C  0.35666206  0.79356679  0.04041306     0.36040
N1193       N  0.50934030  0.66582052  0.03698965    -0.38780
N1194       N  0.32602421  0.80776631  0.03819507    -0.38780
N1195       N  0.44763797  0.67512818  0.09383139    -0.38230
N1196       N  0.41111815  0.83537785  0.99661782    -0.38230
C1197       C  0.04097523  0.75285082  0.97862325    -0.04900
C1198       C  0.04044321  0.72183404  0.96266199    -0.02010
C1199       C  0.06623592  0.72165727  0.94375965     0.02970
C1200       C  0.09160886  0.75331169  0.93987958    -0.04900
C1201       C  0.08820882  0.78633123  0.95421676    -0.02000
C1202       C  0.06569156  0.78483390  0.97428421     0.02970
C1203       C  0.01613610  0.68820474  0.96660547     0.37620
C1204       C  0.10626272  0.82289977  0.94815764     0.37610
C1205       C  0.06814363  0.81705423  0.99025330     0.36040
C1206       C  0.06551956  0.68914939  0.92797614     0.36040
N1207       N  0.07104868  0.84334754  0.00245120    -0.38780
N1208       N  0.06472287  0.66318619  0.91541279    -0.38780
N1209       N  0.11939071  0.85259580  0.94319540    -0.38230
N1210       N  0.99742207  0.66083471  0.96951865    -0.38230
C1211       C  0.39857864  0.74710871  0.94303832    -0.04900
C1212       C  0.42965928  0.77379682  0.94323928    -0.02010
C1213       C  0.45478574  0.77615158  0.96238014     0.02970
C1214       C  0.45319953  0.74775049  0.98001749    -0.04900
C1215       C  0.42306674  0.71953850  0.97882616    -0.02000
C1216       C  0.39426066  0.72163752  0.96161471     0.02970
C1217       C  0.43536768  0.79976958  0.92400337     0.37620
C1218       C  0.42062084  0.68825787  0.99538515     0.37610
C1219       C  0.35765378  0.70143833  0.96473794     0.36040
C1220       C  0.47784279  0.81094869  0.96489916     0.36040
N1221       N  0.32782206  0.68683828  0.96785742    -0.38780
N1222       N  0.49434797  0.84002925  0.96633044    -0.38780
N1223       N  0.41782305  0.66271231  0.00813406    -0.38230
N1224       N  0.44004951  0.82041096  0.90865621    -0.38230
C1225       C  0.28574610  0.50534723  0.26743501    -0.04900
C1226       C  0.28238468  0.00789576  0.29209862    -0.02010
C1227       C  0.31523535  0.00260450  0.30627575     0.02970
C1228       C  0.35281300  0.50321734  0.29707923    -0.04900
C1229       C  0.35786244  0.50866394  0.27360515    -0.02000
C1230       C  0.32499429  0.50975731  0.25876467     0.02970
C1231       C  0.24815170  0.02281836  0.30405417     0.37620
C1232       C  0.39734513  0.51077232  0.26457656     0.37610
C1233       C  0.33350428  0.51410548  0.23469368     0.36040
C1234       C  0.31042127  0.99874291  0.33093037     0.36040
N1235       N  0.34359710  0.51833576  0.21601474    -0.38780
N1236       N  0.30672855  0.99566298  0.35049353    -0.38780
N1237       N  0.42876546  0.51230035  0.25734626    -0.38230
N1238       N  0.22248005  0.03557499  0.31464367    -0.38230
C1239       C  0.14584003  0.49447970  0.29763371    -0.04900
C1240       C  0.14811316  0.52564241  0.28209211    -0.02010
C1241       C  0.17876118  0.52752138  0.26578431     0.02970
C1242       C  0.20973595  0.49854146  0.26540787    -0.04900
C1243       C  0.20381801  0.96501544  0.27992698    -0.02000
C1244       C  0.17222736  0.96306226  0.29534500     0.02970
C1245       C  0.11774062  0.55566263  0.28234974     0.37620
C1246       C  0.23174842  0.93298381  0.28159628     0.37610
C1247       C  0.16902137  0.92914895  0.31015394     0.36040
C1248       C  0.17485078  0.55843087  0.24906618     0.36040
N1249       N  0.16687855  0.90205559  0.32180985    -0.38780
N1250       N  0.16892950  0.58308579  0.23597379    -0.38780
N1251       N  0.25151396  0.90593179  0.28472423    -0.38230
N1252       N  0.09362913  0.57957980  0.28235713    -0.38230
C1253       C  0.25121739  0.53662256  0.23304276    -0.04900
C1254       C  0.25532112  0.57620884  0.24092582    -0.02010
C1255       C  0.25439440  0.60797586  0.22542244     0.02970
C1256       C  0.24753128  0.60174045  0.20213638    -0.04900
C1257       C  0.24561010  0.56386511  0.19375712    -0.02000
C1258       C  0.25248827  0.53208614  0.20838836     0.02970
C1259       C  0.25966996  0.58613800  0.26482381     0.37620
C1260       C  0.23996120  0.55763348  0.16932993     0.37610
C1261       C  0.26870967  0.49826649  0.19673663     0.36040
C1262       C  0.25917517  0.64759524  0.23351171     0.36040
N1263       N  0.28252424  0.97297558  0.18635232    -0.38780
N1264       N  0.26300471  0.67914158  0.23994744    -0.38780
N1265       N  0.23552389  0.55280288  0.14993407    -0.38230
N1266       N  0.26367930  0.59728201  0.28332215    -0.38230
C1267       C  0.24636146  0.89614519  0.20502763    -0.04900
C1268       C  0.27760775  0.90010535  0.22053134    -0.02010
C1269       C  0.27850041  0.93132824  0.23637389     0.02970
C1270       C  0.24809431  0.96092997  0.23649678    -0.04900
C1271       C  0.21437449  0.95307059  0.22232393    -0.02000
C1272       C  0.21395571  0.92166168  0.20682481     0.02970
C1273       C  0.30916821  0.87129272  0.22049838     0.37620
C1274       C  0.18060993  0.97907597  0.22104501     0.37610
C1275       C  0.18085580  0.91826259  0.19121121     0.36040
C1276       C  0.30984495  0.92908863  0.25306379     0.36040
N1277       N  0.15444097  0.91609349  0.17887365    -0.38780
N1278       N  0.33491789  0.92425368  0.26614564    -0.38780
N1279       N  0.15237013  0.99745616  0.21841227    -0.38230
N1280       N  0.33446496  0.84861929  0.22055533    -0.38230
C1281       C  0.74899447  0.50075634  0.25060149    -0.02050
C1282       C  0.97811534  0.25037678  0.00154715     0.01000
C1283       C  0.51873660  0.25115771  0.00093456     0.01000
C1284       C  0.75162047  0.49785441  0.75077738    -0.02050
C1285       C  0.49772670  0.25224966  0.75049527    -0.02050
C1286       C  0.75146312  0.47856349  0.00183369     0.01000
C1287       C  0.75149069  0.01899671  0.00119030     0.01000
N1288       N  0.72989935  0.33379224  0.89768796    -0.05680
N1289       N  0.71707706  0.35720585  0.91401881    -0.57800
N1290       N  0.76833852  0.33105905  0.84496722    -0.05360
N1291       N  0.78285988  0.35032806  0.82760394    -0.59930
N1292       N  0.72998446  0.33296810  0.84470621    -0.04960
N1293       N  0.71771107  0.35428346  0.82719366    -0.57770
N1294       N  0.76836425  0.33283106  0.89758864    -0.04630
N1295       N  0.78252439  0.35560726  0.91370179    -0.60280
C1296       C  0.75025834  0.37063504  0.92386720     0.96500
C1297       C  0.75120389  0.36494909  0.81655602     0.96280
N1298       N  0.83191613  0.22902579  0.84489891    -0.05860
N1299       N  0.85422364  0.21597361  0.82818091    -0.58380
N1300       N  0.83234033  0.26614684  0.89764745    -0.03980
N1301       N  0.85529523  0.27944012  0.91392462    -0.59630
N1302       N  0.83250759  0.22785593  0.89756833    -0.05890
N1303       N  0.85567767  0.21434753  0.91394456    -0.58640
N1304       N  0.83232499  0.26716426  0.84548121    -0.03630
N1305       N  0.85504762  0.28095222  0.82931815    -0.59720
Mn1306     Mn  0.80100036  0.30000549  0.87155149     1.18440
C1307       C  0.86840141  0.24871431  0.81857715     0.98580
C1308       C  0.86966629  0.24691495  0.92398787     0.99240
N1309       N  0.66471193  0.26957916  0.84510361    -0.05910
N1310       N  0.64154846  0.28343636  0.82893611    -0.62220
N1311       N  0.66330563  0.23095705  0.89729957    -0.04720
N1312       N  0.63772239  0.21861039  0.91249975    -0.62900
N1313       N  0.66363003  0.26926762  0.89700334    -0.05420
N1314       N  0.63833408  0.28342830  0.91185644    -0.62490
N1315       N  0.66409754  0.23135333  0.84526079    -0.04320
N1316       N  0.64044059  0.21839530  0.82926245    -0.63180
Mn1317     Mn  0.69622267  0.30234735  0.87121402     1.10660
C1318       C  0.62676797  0.25116268  0.81915376     0.99800
C1319       C  0.62224183  0.25171412  0.92153009     0.99880
N1320       N  0.76738129  0.16234956  0.89618402    -0.05430
N1321       N  0.78145258  0.13680676  0.91092610    -0.60800
N1322       N  0.72856004  0.16602401  0.84395399    -0.04750
N1323       N  0.71495619  0.14485155  0.82691890    -0.57530
N1324       N  0.76704400  0.16566886  0.84380375    -0.06060
N1325       N  0.78036413  0.14418314  0.82673287    -0.60370
N1326       N  0.72892632  0.16273945  0.89668153    -0.05040
N1327       N  0.71627037  0.13736218  0.91192024    -0.57550
Mn1328     Mn  0.80056162  0.19540347  0.87070606     1.20190
Mn1329     Mn  0.69538420  0.19690371  0.87101978     1.10090
Cl1330     Cl  0.74820948  0.24858870  0.87139374    -0.85520
C1331       C  0.74948404  0.12125112  0.92077271     0.96810
C1332       C  0.74756606  0.13203013  0.81604429     0.96610
N1333       N  0.66664442  0.23239008  0.15659605    -0.05680
N1334       N  0.64779201  0.21824194  0.17420050    -0.57800
N1335       N  0.66639099  0.27209720  0.10442473    -0.05360
N1336       N  0.64313047  0.28643040  0.08834503    -0.59930
N1337       N  0.66637807  0.23381213  0.10400858    -0.04960
N1338       N  0.64315305  0.22136526  0.08757547    -0.57770
N1339       N  0.66614209  0.27049945  0.15715543    -0.04630
N1340       N  0.64655452  0.28297273  0.17524524    -0.60280
C1341       C  0.63536950  0.24984871  0.18590498     0.96500
C1342       C  0.62888881  0.25445355  0.07791342     0.96280
N1343       N  0.77139690  0.33536617  0.10661177    -0.05860
N1344       N  0.78586929  0.36052253  0.09197698    -0.58380
N1345       N  0.73091568  0.33257201  0.15824625    -0.03980
N1346       N  0.71644936  0.35312240  0.17522457    -0.59630
N1347       N  0.76929446  0.33290506  0.15873709    -0.05890
N1348       N  0.78165837  0.35440909  0.17593864    -0.58640
N1349       N  0.73292514  0.33627651  0.10591894    -0.03630
N1350       N  0.72066091  0.36201843  0.09064803    -0.59720
Mn1351     Mn  0.69815434  0.30373682  0.13124944     1.18440
C1352       C  0.75402135  0.37711515  0.08203286     0.98580
C1353       C  0.74823604  0.36680937  0.18619256     0.99240
N1354       N  0.73114825  0.16615081  0.10489601    -0.05910
N1355       N  0.71749662  0.14168592  0.08956031    -0.62220
N1356       N  0.76812870  0.16690707  0.15794586    -0.04720
N1357       N  0.78090312  0.14592083  0.17534505    -0.62900
N1358       N  0.72970214  0.16742854  0.15732593    -0.05420
N1359       N  0.71546892  0.14662162  0.17427154    -0.62490
N1360       N  0.76961217  0.16489219  0.10526210    -0.04320
N1361       N  0.78267143  0.13957226  0.08997514    -0.63180
Mn1362     Mn  0.69758378  0.19921769  0.13045998     1.10660
C1363       C  0.74979406  0.12511601  0.08021314     0.99800
C1364       C  0.74776244  0.13406644  0.18560071     0.99880
N1365       N  0.83313905  0.26736658  0.15921585    -0.05430
N1366       N  0.85446045  0.28038910  0.17632061    -0.60800
N1367       N  0.83589092  0.22952011  0.10641213    -0.04750
N1368       N  0.85922893  0.21584591  0.09027677    -0.57530
N1369       N  0.83608154  0.26782280  0.10660156    -0.06060
N1370       N  0.85944925  0.28094518  0.09050632    -0.60370
N1371       N  0.83338802  0.22915063  0.15896130    -0.05040
N1372       N  0.85511174  0.21535853  0.17589429    -0.57550
Mn1373     Mn  0.80344022  0.30162249  0.13267206     1.20190
Mn1374     Mn  0.80269733  0.19671390  0.13198725     1.10090
Cl1375     Cl  0.75050526  0.25033243  0.13124004    -0.85520
C1376       C  0.86736733  0.24769313  0.18682976     0.96810
C1377       C  0.87370100  0.24825120  0.08048158     0.96610
N1378       N  0.58469870  0.01878191  0.65588876    -0.05680
N1379       N  0.60592859  0.03197539  0.67302613    -0.57800
N1380       N  0.58661455  0.48265203  0.60257004    -0.05360
N1381       N  0.61247141  0.47089555  0.58712878    -0.59930
N1382       N  0.58539002  0.02089482  0.60345618    -0.04960
N1383       N  0.61037401  0.03566652  0.58878598    -0.57770
N1384       N  0.58610977  0.48051229  0.65526582    -0.04630
N1385       N  0.60858528  0.46696145  0.67197017    -0.60280
C1386       C  0.62012895  0.99938862  0.68314259     0.96500
C1387       C  0.62711638  0.00438727  0.57852458     0.96280
N1388       N  0.98132772  0.41767080  0.60255512    -0.05860
N1389       N  0.96669687  0.39309104  0.58763772    -0.58380
N1390       N  0.52219291  0.41516370  0.65424297    -0.03980
N1391       N  0.53573905  0.39174853  0.67041817    -0.59630
N1392       N  0.98375960  0.41593151  0.65446393    -0.05890
N1393       N  0.97030976  0.39350755  0.67077995    -0.58640
N1394       N  0.51987828  0.41679565  0.60183971    -0.03630
N1395       N  0.53191801  0.39160341  0.58616842    -0.59720
Mn1396     Mn  0.55469773  0.44786394  0.62828471     1.18440
C1397       C  0.99832686  0.37707585  0.57732237     0.98580
C1398       C  0.00289553  0.37856690  0.68059907     0.99240
N1399       N  0.51612329  0.08499261  0.60444119    -0.05910
N1400       N  0.52778575  0.10773373  0.58765214    -0.62220
N1401       N  0.98102499  0.08294385  0.65730946    -0.04720
N1402       N  0.96743035  0.10777974  0.67242505    -0.62900
N1403       N  0.51936952  0.08350990  0.65683630    -0.05420
N1404       N  0.53258914  0.10854820  0.67201800    -0.62490
N1405       N  0.97759700  0.08526625  0.60559568    -0.04320
N1406       N  0.96238815  0.10826949  0.58971250    -0.63180
Mn1407     Mn  0.55219967  0.05278975  0.63001712     1.10660
C1408       C  0.99400116  0.12209196  0.57864165     0.99800
C1409       C  0.99971718  0.12350650  0.68168984     0.99880
N1410       N  0.91946063  0.47901816  0.65770148    -0.05430
N1411       N  0.90054315  0.46322463  0.67486459    -0.60800
N1412       N  0.91262802  0.02142947  0.60669051    -0.04750
N1413       N  0.88822027  0.03672680  0.59159774    -0.57530
N1414       N  0.91371830  0.48332854  0.60503881    -0.06060
N1415       N  0.88994168  0.47182343  0.58859164    -0.60370
N1416       N  0.91820550  0.01711786  0.65912174    -0.05040
N1417       N  0.89782286  0.02798520  0.67730543    -0.57550
Mn1418     Mn  0.94886636  0.44840878  0.62963683     1.20190
Mn1419     Mn  0.94664886  0.05228931  0.63226224     1.10090
Cl1420     Cl  0.00079382  0.00029714  0.62959609    -0.85520
C1421       C  0.88701120  0.99387323  0.68705094     0.96810
C1422       C  0.87404255  0.00552061  0.58053579     0.96610
N1423       N  0.98060067  0.41644115  0.34319609    -0.05680
N1424       N  0.96741380  0.39609314  0.32576393    -0.57800
N1425       N  0.51600090  0.41418648  0.39669025    -0.05360
N1426       N  0.52820439  0.39063311  0.41310849    -0.59930
N1427       N  0.97747050  0.41522167  0.39591623    -0.04960
N1428       N  0.96280760  0.39229330  0.41181458    -0.57770
N1429       N  0.51898201  0.41501479  0.34396854    -0.04630
N1430       N  0.53275940  0.39336250  0.32710480    -0.60280
C1431       C  0.00024528  0.38243798  0.31563519     0.96500
C1432       C  0.99479887  0.37719130  0.42248654     0.96280
N1433       N  0.58381611  0.01577156  0.39779662    -0.05860
N1434       N  0.60910038  0.02891202  0.41287332    -0.58380
N1435       N  0.58373568  0.47765657  0.34515037    -0.03980
N1436       N  0.60344863  0.46370621  0.32762628    -0.59630
N1437       N  0.58521820  0.01578713  0.34540989    -0.05890
N1438       N  0.60639966  0.02849252  0.32817214    -0.58640
N1439       N  0.58412240  0.47750410  0.39770277    -0.03630
N1440       N  0.61001053  0.46409665  0.41270990    -0.59720
Mn1441     Mn  0.55157640  0.44509564  0.37108177     1.18440
C1442       C  0.62555846  0.99655565  0.42211493     0.98580
C1443       C  0.61761089  0.99561999  0.31711870     0.99240
N1444       N  0.91200445  0.48278821  0.39348155    -0.05910
N1445       N  0.88486025  0.47088928  0.40781815    -0.62220
N1446       N  0.91954099  0.02027710  0.34101482    -0.04720
N1447       N  0.89930455  0.03415730  0.32356403    -0.62900
N1448       N  0.91839486  0.48210221  0.34130210    -0.05420
N1449       N  0.89733633  0.46919270  0.32405027    -0.62490
N1450       N  0.91296288  0.02099681  0.39314101    -0.04320
N1451       N  0.88665738  0.03561046  0.40723988    -0.63180
Mn1452     Mn  0.94627943  0.44821956  0.36871529     1.10660
C1453       C  0.86898271  0.00418837  0.41631250     0.99800
C1454       C  0.88632702  0.00195215  0.31287756     0.99880
N1455       N  0.52252747  0.08126095  0.34410150    -0.05430
N1456       N  0.53781178  0.10137279  0.32727111    -0.60800
N1457       N  0.98012296  0.08421103  0.39530236    -0.04750
N1458       N  0.96562029  0.10860815  0.41055766    -0.57530
N1459       N  0.51857589  0.08306164  0.39660217    -0.06060
N1460       N  0.53089890  0.10666019  0.41286712    -0.60370
N1461       N  0.98423085  0.08290880  0.34311165    -0.05040
N1462       N  0.97264052  0.10465257  0.32575054    -0.57550
Mn1463     Mn  0.55334632  0.04975524  0.37123790     1.20190
Mn1464     Mn  0.94844365  0.05290013  0.36825741     1.10090
Cl1465     Cl  0.99989191  0.99894208  0.37043345    -0.85520
C1466       C  0.00643167  0.11590184  0.31586903     0.96810
C1467       C  0.99751239  0.12237019  0.42151647     0.96610
C1468       C  0.49382863  0.26859022  0.50013777     0.01000
C1469       C  0.49339114  0.22812858  0.49980823     0.01000
C1470       C  0.77453474  0.51052671  0.49862602     0.01000
C1471       C  0.73377616  0.50909137  0.49975911     0.01000
C1472       C  0.50285449  0.24884377  0.25110977    -0.02050
C1473       C  0.49771628  0.28453926  0.26856217    -0.04900
C1474       C  0.99172444  0.32387624  0.26054777    -0.02010
C1475       C  0.99169881  0.35579526  0.27595795     0.02970
C1476       C  0.99967368  0.34984738  0.29922177    -0.04900
C1477       C  0.50249354  0.31199641  0.30772598    -0.02000
C1478       C  0.49650858  0.28008837  0.29318618     0.02970
C1479       C  0.98717793  0.33316054  0.23653644     0.37620
C1480       C  0.50852291  0.30587786  0.33213910     0.37610
C1481       C  0.48172354  0.24598127  0.30483263     0.36040
C1482       C  0.98525087  0.39521245  0.26773559     0.36040
N1483       N  0.46904512  0.22037473  0.31518658    -0.38780
N1484       N  0.98005182  0.42661041  0.26117983    -0.38780
N1485       N  0.51331031  0.30112660  0.35152570    -0.38230
N1486       N  0.98308756  0.34298074  0.21776238    -0.38230
C1487       C  0.00859382  0.14441268  0.29666631    -0.04900
C1488       C  0.54043778  0.16980894  0.29492273    -0.02010
C1489       C  0.53889805  0.20178464  0.27979896     0.02970
C1490       C  0.50535546  0.20905747  0.26521444    -0.04900
C1491       C  0.97660238  0.17864053  0.26465673    -0.02000
C1492       C  0.97767960  0.14797866  0.28082719     0.02970
C1493       C  0.57408463  0.16538331  0.31007661     0.37620
C1494       C  0.94737704  0.17480558  0.24682007     0.37610
C1495       C  0.94665663  0.11936230  0.28082052     0.36040
C1496       C  0.57121666  0.22867693  0.28166711     0.36040
N1497       N  0.92165694  0.09697652  0.28077840    -0.38780
N1498       N  0.59824075  0.24803128  0.28457564    -0.38780
N1499       N  0.92420230  0.16898291  0.23280141    -0.38230
N1500       N  0.60097485  0.16225982  0.32203289    -0.38230
C1501       C  0.99565223  0.15149128  0.44050163    -0.04900
C1502       C  0.52447614  0.18043556  0.44294607    -0.02010
C1503       C  0.52324444  0.20668130  0.46158682     0.02970
C1504       C  0.49222730  0.20534597  0.47764186    -0.04900
C1505       C  0.96265545  0.17717359  0.47453904    -0.02000
C1506       C  0.96487250  0.15010144  0.45651885     0.02970
C1507       C  0.55611312  0.18294048  0.42655571     0.37620
C1508       C  0.92969953  0.17521732  0.49010535     0.37610
C1509       C  0.93694771  0.11869927  0.45579052     0.36040
C1510       C  0.55656705  0.23152040  0.46553506     0.36040
N1511       N  0.91507450  0.09331438  0.45564343    -0.38780
N1512       N  0.58399892  0.25027696  0.46847816    -0.38780
N1513       N  0.90292011  0.17304506  0.50207163    -0.38230
N1514       N  0.58148702  0.18495618  0.41357555    -0.38230
C1515       C  0.49541283  0.29351120  0.47855898    -0.04900
C1516       C  0.52377077  0.32342993  0.47701157    -0.02010
C1517       C  0.52129121  0.35201331  0.45978396     0.02970
C1518       C  0.99397906  0.34878583  0.44185970    -0.04900
C1519       C  0.96663670  0.31830954  0.44255490    -0.02000
C1520       C  0.96607723  0.29208318  0.46126491     0.02970
C1521       C  0.55633005  0.32543210  0.49290596     0.37620
C1522       C  0.93852664  0.31405406  0.42413197     0.37610
C1523       C  0.93278520  0.26671219  0.46344069     0.36040
C1524       C  0.54438475  0.38698878  0.46189158     0.36040
N1525       N  0.90501786  0.24792407  0.46466889    -0.38780
N1526       N  0.56168094  0.41547546  0.46401764    -0.38780
N1527       N  0.91611517  0.31058646  0.40943884    -0.38230
N1528       N  0.58310919  0.32806978  0.50492747    -0.38230
C1529       C  0.65762212  0.99743229  0.43980173    -0.04900
C1530       C  0.68018786  0.03137555  0.44288061    -0.02010
C1531       C  0.70584106  0.03490526  0.46173928     0.02970
C1532       C  0.70939974  0.50457976  0.47812973    -0.04900
C1533       C  0.68847691  0.46978716  0.47417526    -0.02000
C1534       C  0.66488224  0.46547589  0.45447524     0.02970
C1535       C  0.67832966  0.06272311  0.42622592     0.37620
C1536       C  0.69010106  0.43800801  0.49043872     0.37610
C1537       C  0.64982715  0.42734234  0.44899109     0.36040
C1538       C  0.72535276  0.07170792  0.46484527     0.36040
N1539       N  0.63914289  0.39646975  0.44445974    -0.38780
N1540       N  0.73851915  0.10242291  0.46654321    -0.38780
N1541       N  0.69019972  0.41186156  0.50289562    -0.38230
N1542       N  0.67712879  0.08778641  0.41302475    -0.38230
C1543       C  0.83793231  0.00633231  0.43442989    -0.04900
C1544       C  0.81944205  0.47244644  0.44284400    -0.02010
C1545       C  0.79624982  0.47432469  0.46283480     0.02970
C1546       C  0.79354065  0.50941431  0.47546044    -0.04900
C1547       C  0.81210139  0.04283652  0.46697837    -0.02000
C1548       C  0.82943757  0.04226925  0.44526022     0.02970
C1549       C  0.82518964  0.43508089  0.43175793     0.37620
C1550       C  0.81567657  0.07733425  0.48107146     0.37610
C1551       C  0.83625000  0.07899193  0.43383945     0.36040
C1552       C  0.78225524  0.43843882  0.47275505     0.36040
N1553       N  0.84077103  0.10833344  0.42456860    -0.38780
N1554       N  0.77282953  0.40913531  0.48060282    -0.38940
N1555       N  0.81899119  0.10488159  0.49222985    -0.38230
N1556       N  0.82982368  0.40502852  0.42321513    -0.38230
C1557       C  0.71002350  0.50977962  0.52173810    -0.04900
C1558       C  0.68068148  0.03893083  0.52506870    -0.02010
C1559       C  0.65681695  0.03892015  0.54468993     0.02970
C1560       C  0.65737065  0.00700316  0.55989645    -0.04900
C1561       C  0.68695280  0.47815253  0.55703738    -0.02000
C1562       C  0.71385198  0.48022138  0.53858186     0.02970
C1563       C  0.67474553  0.07057151  0.50900722     0.37620
C1564       C  0.69107491  0.44713509  0.57367946     0.37610
C1565       C  0.74463458  0.45102118  0.53674197     0.36040
C1566       C  0.63287204  0.07314867  0.54942709     0.36040
N1567       N  0.76921951  0.42768234  0.53552618    -0.38780
N1568       N  0.61523576  0.10127888  0.55335500    -0.38780
N1569       N  0.69453489  0.42243052  0.58699149    -0.38230
N1570       N  0.66745324  0.09704445  0.49747683    -0.38230
C1571       C  0.84939987  0.00858305  0.55971455    -0.04900
C1572       C  0.81442960  0.03065377  0.55942003    -0.02010
C1573       C  0.79320528  0.03558792  0.53881078     0.02970
C1574       C  0.80239028  0.51270994  0.51926503    -0.04900
C1575       C  0.84001396  0.49337838  0.51940741    -0.02000
C1576       C  0.86362620  0.49315265  0.53920611     0.02970
C1577       C  0.80042523  0.04874738  0.58027312     0.37620
C1578       C  0.85741701  0.47520703  0.49950162     0.37610
C1579       C  0.90428331  0.48009703  0.53802398     0.36040
C1580       C  0.76696053  0.06878034  0.53698640     0.36040
N1581       N  0.93684500  0.47063110  0.53701799    -0.38780
N1582       N  0.74738049  0.09642006  0.53601334    -0.38780
N1583       N  0.87421305  0.46091214  0.48448404    -0.38230
N1584       N  0.78909998  0.06285107  0.59697806    -0.38230
C1585       C  0.49407500  0.20269522  0.52129171    -0.04900
C1586       C  0.46656467  0.20739930  0.53937256    -0.02010
C1587       C  0.46810809  0.18271640  0.55877563     0.02970
C1588       C  0.99225690  0.14916283  0.55876624    -0.04900
C1589       C  0.01512978  0.14114878  0.53945470    -0.02000
C1590       C  0.01929226  0.16926227  0.52217565     0.02970
C1591       C  0.43353939  0.23388992  0.53730688     0.37620
C1592       C  0.03068146  0.10210333  0.53604227     0.37610
C1593       C  0.05030207  0.16283900  0.50571139     0.36040
C1594       C  0.44430159  0.19164593  0.57860924     0.36040
N1595       N  0.07571320  0.15628128  0.49321143    -0.38780
N1596       N  0.42553260  0.19892771  0.59450049    -0.38780
N1597       N  0.04165922  0.07056539  0.53298116    -0.38230
N1598       N  0.40586600  0.25352141  0.53626017    -0.38230
C1599       C  0.99585519  0.34657753  0.55900296    -0.04900
C1600       C  0.96363946  0.34643537  0.54375498    -0.02010
C1601       C  0.96287210  0.32062053  0.52507571     0.02970
C1602       C  0.49278585  0.29208948  0.52207587    -0.04900
C1603       C  0.52337336  0.28996335  0.53849189    -0.02000
C1604       C  0.52509838  0.31727420  0.55662582     0.02970
C1605       C  0.93042040  0.37250929  0.54709828     0.37620
C1606       C  0.55500125  0.26183319  0.53587827     0.37610
C1607       C  0.55667208  0.31434748  0.57316553     0.36040
C1608       C  0.93028237  0.32367472  0.50916027     0.36040
N1609       N  0.58184720  0.31182419  0.58636582    -0.38780
N1610       N  0.90358132  0.32730293  0.49711395    -0.38780
N1611       N  0.58063583  0.23979487  0.53396766    -0.38230
N1612       N  0.90311226  0.39216961  0.54977076    -0.38230
C1613       C  0.60872714  0.24789021  0.20619559    -0.04900
C1614       C  0.60129241  0.28052204  0.22014427    -0.02010
C1615       C  0.57116943  0.27988555  0.23681777     0.02970
C1616       C  0.54312224  0.24874817  0.23721787    -0.04900
C1617       C  0.55391869  0.21478708  0.22401408    -0.02000
C1618       C  0.58835529  0.21348282  0.21090071     0.02970
C1619       C  0.62596831  0.31449001  0.21822744     0.37620
C1620       C  0.52887903  0.18127220  0.22139922     0.37610
C1621       C  0.60176221  0.17618221  0.20187712     0.36040
C1622       C  0.57338864  0.30993260  0.25409210     0.36040
N1623       N  0.61230521  0.14627254  0.19503356    -0.38780
N1624       N  0.57803343  0.33396174  0.26765315    -0.38780
N1625       N  0.51152625  0.15323374  0.21778586    -0.38230
N1626       N  0.64545918  0.34167586  0.21690908    -0.38230
C1627       C  0.90043494  0.24787850  0.20311087    -0.04900
C1628       C  0.93843610  0.24681253  0.19447190    -0.02010
C1629       C  0.97070067  0.25291865  0.20899549     0.02970
C1630       C  0.96658455  0.25166331  0.23365002    -0.04900
C1631       C  0.92677477  0.25509980  0.24177763    -0.02000
C1632       C  0.89447982  0.25378293  0.22649959     0.02970
C1633       C  0.94419523  0.24187391  0.16995908     0.37620
C1634       C  0.91717975  0.25862274  0.26576570     0.37610
C1635       C  0.85462583  0.25676195  0.23496487     0.36040
C1636       C  0.00490328  0.26728046  0.19718848     0.36040
N1637       N  0.82289952  0.25910565  0.24171945    -0.38780
N1638       N  0.03038721  0.27953013  0.18649120    -0.38780
N1639       N  0.90626121  0.26194886  0.28436235    -0.38230
N1640       N  0.94862894  0.23792785  0.15049947    -0.38230
C1641       C  0.74902064  0.09482381  0.06156452    -0.04900
C1642       C  0.78154638  0.06979865  0.05755975    -0.02010
C1643       C  0.78181462  0.04372942  0.03877332     0.02970
C1644       C  0.75033825  0.04348167  0.02285730    -0.04900
C1645       C  0.71781263  0.06847550  0.02710423    -0.02000
C1646       C  0.71588058  0.09117250  0.04717013     0.02970
C1647       C  0.81456767  0.06953304  0.07321084     0.37620
C1648       C  0.68548458  0.07148052  0.01105687     0.37610
C1649       C  0.67861141  0.10892893  0.05327549     0.36040
C1650       C  0.81642376  0.01979866  0.03517399     0.36040
N1651       N  0.64837678  0.12179729  0.05826563    -0.38780
N1652       N  0.84524976  0.00228245  0.03285588    -0.38780
N1653       N  0.65885077  0.07535195  0.99898217    -0.38230
N1654       N  0.84096126  0.06908509  0.08564275    -0.38230
C1655       C  0.75548609  0.40761729  0.06367992    -0.04900
C1656       C  0.78857180  0.41055998  0.04934010    -0.02010
C1657       C  0.78637090  0.43213410  0.02890248     0.02970
C1658       C  0.75371507  0.45674454  0.02429361    -0.04900
C1659       C  0.72261536  0.45782647  0.04030382    -0.02000
C1660       C  0.72316741  0.43286992  0.05955034     0.02970
C1661       C  0.82581467  0.39299941  0.05577239     0.37620
C1662       C  0.68766462  0.48097310  0.03592832     0.37610
C1663       C  0.69058416  0.43420622  0.07539556     0.36040
C1664       C  0.81814263  0.42808734  0.01264138     0.36040
N1665       N  0.66456124  0.43547735  0.08799221    -0.38780
N1666       N  0.84412811  0.42372559  0.00023715    -0.38780
N1667       N  0.65866696  0.49791952  0.03289753    -0.38230
N1668       N  0.85601385  0.38022653  0.06101769    -0.38230
C1669       C  0.75116017  0.09137429  0.93958835    -0.04900
C1670       C  0.71950731  0.06619603  0.94403416    -0.02010
C1671       C  0.72065636  0.04046892  0.96302914     0.02970
C1672       C  0.75187325  0.04199706  0.97905467    -0.04900
C1673       C  0.78324495  0.06750056  0.97443823    -0.02000
C1674       C  0.78458776  0.08847608  0.95380412     0.02970
C1675       C  0.68628948  0.06533006  0.92858579     0.37620
C1676       C  0.81535780  0.07247361  0.99038197     0.37610
C1677       C  0.82163848  0.10498083  0.94689816     0.36040
C1678       C  0.68831377  0.01426898  0.96661023     0.36040
N1679       N  0.85165470  0.11681811  0.94123523    -0.38780
N1680       N  0.66206861  0.99381424  0.96924663    -0.38780
N1681       N  0.84195154  0.07837731  0.00210372    -0.38230
N1682       N  0.65974896  0.06447627  0.91628229    -0.38230
C1683       C  0.75029635  0.45271859  0.98061518    -0.04900
C1684       C  0.72348565  0.42123259  0.97954664    -0.02010
C1685       C  0.72613924  0.39309477  0.96208678     0.02970
C1686       C  0.75103986  0.39860523  0.94336252    -0.04900
C1687       C  0.77704440  0.43019439  0.94370655    -0.02000
C1688       C  0.77847217  0.45544468  0.96282186     0.02970
C1689       C  0.69226698  0.41683081  0.99600631     0.37620
C1690       C  0.80301028  0.43648408  0.92451919     0.37610
C1691       C  0.81191245  0.48062913  0.96492249     0.36040
C1692       C  0.70639596  0.35621748  0.96475736     0.36040
N1693       N  0.83996816  0.49903188  0.96604730    -0.38780
N1694       N  0.69198745  0.32627010  0.96737067    -0.38780
N1695       N  0.82364851  0.44159857  0.90919800    -0.38230
N1696       N  0.66642094  0.41149775  0.00830350    -0.38230
C1697       C  0.99852971  0.15580165  0.69872543    -0.04900
C1698       C  0.52843750  0.18345094  0.69951993    -0.02010
C1699       C  0.52764533  0.21369695  0.71583426     0.02970
C1700       C  0.99739283  0.21647078  0.73299904    -0.04900
C1701       C  0.96566582  0.18910454  0.73062592    -0.02000
C1702       C  0.96615559  0.16040089  0.71334396     0.02970
C1703       C  0.55979075  0.18215533  0.68274178     0.37620
C1704       C  0.92932569  0.19093626  0.74349706     0.37610
C1705       C  0.93099632  0.13769333  0.70949354     0.36040
C1706       C  0.56081925  0.23976676  0.71541266     0.36040
N1707       N  0.90219676  0.12129067  0.70607996    -0.38780
N1708       N  0.58858593  0.25852892  0.71396324    -0.38780
N1709       N  0.89930852  0.19091309  0.75264328    -0.38230
N1710       N  0.58480341  0.18142327  0.66945427    -0.38230
C1711       C  0.99870269  0.28909286  0.73366438    -0.04900
C1712       C  0.02873273  0.31867930  0.73339524    -0.02010
C1713       C  0.02777873  0.34926607  0.71718387     0.02970
C1714       C  0.00197423  0.34824253  0.69860770    -0.04900
C1715       C  0.47477307  0.31819704  0.69709764    -0.02000
C1716       C  0.47098058  0.29108769  0.71495584     0.02970
C1717       C  0.06405179  0.31752197  0.74714084     0.37620
C1718       C  0.45082469  0.31432017  0.67661200     0.37610
C1719       C  0.43618270  0.26734260  0.71383914     0.36040
C1720       C  0.05419567  0.38197688  0.71944818     0.36040
N1721       N  0.40703081  0.25099214  0.71155919    -0.38780
N1722       N  0.07507991  0.40803076  0.72134883    -0.38780
N1723       N  0.43196961  0.31102527  0.66028833    -0.38230
N1724       N  0.09338778  0.31797271  0.75706711    -0.38230
C1725       C  0.53382005  0.25102040  0.76795080    -0.04900
C1726       C  0.53477294  0.27901387  0.78641768    -0.02010
C1727       C  0.56393688  0.27757427  0.80344388     0.02970
C1728       C  0.59557282  0.25152425  0.80158701    -0.04900
C1729       C  0.59618461  0.22421311  0.78384271    -0.02000
C1730       C  0.56438053  0.22140725  0.76850805     0.02970
C1731       C  0.50793527  0.31202159  0.78777228     0.37620
C1732       C  0.62966031  0.19790311  0.78160761     0.37610
C1733       C  0.56318582  0.18492375  0.75606541     0.36040
C1734       C  0.56075249  0.30284315  0.82332888     0.36040
N1735       N  0.56366337  0.15484467  0.74715164    -0.38780
N1736       N  0.55801053  0.32278194  0.83918315    -0.38780
N1737       N  0.65611704  0.17684531  0.77976894    -0.38230
N1738       N  0.98858691  0.33957070  0.79013071    -0.38230
C1739       C  0.96108267  0.25200195  0.76739120    -0.04900
C1740       C  0.93043878  0.28139752  0.76828901    -0.02010
C1741       C  0.89884743  0.27801209  0.78372548     0.02970
C1742       C  0.89919437  0.24925519  0.80077309    -0.04900
C1743       C  0.93019972  0.22228031  0.80168706    -0.02000
C1744       C  0.95941819  0.22214440  0.78479756     0.02970
C1745       C  0.93124117  0.31774624  0.75569188     0.37620
C1746       C  0.93260154  0.19433901  0.82037474     0.37610
C1747       C  0.98513465  0.18821519  0.78489130     0.36040
C1748       C  0.86556396  0.30470996  0.78206956     0.36040
N1749       N  0.00301251  0.15952384  0.78633480    -0.38780
N1750       N  0.83911230  0.32590419  0.78060527    -0.38780
N1751       N  0.93467583  0.17210188  0.83519173    -0.38230
N1752       N  0.93062034  0.34758171  0.74648986    -0.38230
C1753       C  0.79223922  0.99490694  0.73706026    -0.04900
C1754       C  0.82407398  0.02222626  0.73823669    -0.02010
C1755       C  0.85737142  0.01800652  0.72389803     0.02970
C1756       C  0.85829844  0.99049875  0.70625654    -0.04900
C1757       C  0.83037643  0.46083797  0.70643597    -0.02000
C1758       C  0.79896715  0.46184996  0.72213238     0.02970
C1759       C  0.82600852  0.05386420  0.75449348     0.37620
C1760       C  0.83229912  0.42981558  0.68952265     0.37610
C1761       C  0.77189297  0.42981415  0.72021931     0.36040
C1762       C  0.89309167  0.03878642  0.72897101     0.36040
N1763       N  0.75273827  0.40281506  0.71704484    -0.38780
N1764       N  0.92210780  0.05384323  0.73368913    -0.38780
N1765       N  0.83347446  0.40504546  0.67614651    -0.38230
N1766       N  0.83050270  0.07911335  0.76728723    -0.38230
C1767       C  0.71630235  0.00256859  0.73255949    -0.04900
C1768       C  0.67608017  0.50733414  0.73962320    -0.02010
C1769       C  0.64482099  0.50651870  0.72350219     0.02970
C1770       C  0.65224849  0.00002259  0.70025360    -0.04900
C1771       C  0.69088650  0.99905791  0.69261009    -0.02000
C1772       C  0.72203574  0.00498614  0.70801129     0.02970
C1773       C  0.66500866  0.51221875  0.76329739     0.37620
C1774       C  0.69852743  0.99484786  0.66824856     0.37610
C1775       C  0.75676789  0.02077864  0.69735865     0.36040
C1776       C  0.60449683  0.51085645  0.73094231     0.36040
N1777       N  0.78307264  0.03420398  0.68789398    -0.38780
N1778       N  0.57236366  0.51429753  0.73685285    -0.38780
N1779       N  0.70450921  0.99152850  0.64889220    -0.38230
N1780       N  0.65303038  0.51680546  0.78157965    -0.38230
C1781       C  0.74726001  0.03394609  0.76830503    -0.04900
C1782       C  0.74483776  0.07368553  0.76036867    -0.02010
C1783       C  0.74520193  0.10559070  0.77587397     0.02970
C1784       C  0.74735056  0.09931037  0.79949625    -0.04900
C1785       C  0.74625529  0.06136610  0.80787877    -0.02000
C1786       C  0.74226799  0.02956548  0.79286377     0.02970
C1787       C  0.74275017  0.08362059  0.73637602     0.37620
C1788       C  0.74714867  0.05516216  0.83252929     0.37610
C1789       C  0.72596248  0.99544865  0.80376641     0.36040
C1790       C  0.74509703  0.14534085  0.76746174     0.36040
N1791       N  0.71196840  0.96997220  0.81362657    -0.38780
N1792       N  0.74521193  0.17698768  0.76072811    -0.38780
N1793       N  0.74783258  0.05036143  0.85209798    -0.38230
N1794       N  0.74041710  0.09501897  0.71781736    -0.38230
C1795       C  0.75230206  0.45811284  0.76520113    -0.04900
C1796       C  0.78514476  0.45032262  0.78026729    -0.02010
C1797       C  0.78598196  0.41818324  0.79531281     0.02970
C1798       C  0.75354068  0.39355330  0.79719840    -0.04900
C1799       C  0.72286396  0.39780010  0.78125532    -0.02000
C1800       C  0.72248223  0.42861910  0.76498054     0.02970
C1801       C  0.81730304  0.47709424  0.78315337     0.37620
C1802       C  0.69178836  0.36930059  0.78115773     0.37610
C1803       C  0.69205374  0.42650756  0.74779225     0.36040
C1804       C  0.81997842  0.41258059  0.81011297     0.36040
N1805       N  0.66774112  0.42184616  0.73428763    -0.38780
N1806       N  0.84719631  0.40851329  0.82172457    -0.38780
N1807       N  0.66716502  0.34650498  0.78111777    -0.38230
N1808       N  0.84423349  0.49584355  0.78744962    -0.38230
C1809       C  0.54481512  0.25125802  0.02207257    -0.04900
C1810       C  0.54132175  0.28006494  0.03942373    -0.02010
C1811       C  0.56792355  0.28053460  0.05804983     0.02970
C1812       C  0.60064074  0.25502288  0.05845547    -0.04900
C1813       C  0.60625959  0.22906374  0.04020976    -0.02000
C1814       C  0.57738854  0.22502922  0.02323302     0.02970
C1815       C  0.51276795  0.31138925  0.03751462     0.37620
C1816       C  0.64372356  0.20923365  0.03756062     0.37610
C1817       C  0.58168432  0.19269151  0.00750223     0.36040
C1818       C  0.56170019  0.30767500  0.07668755     0.36040
N1819       N  0.58649890  0.16606682  0.99570441    -0.38780
N1820       N  0.55667622  0.32930886  0.09156223    -0.38780
N1821       N  0.67407062  0.19464292  0.03499228    -0.38230
N1822       N  0.49086556  0.33723479  0.03630196    -0.38230
C1823       C  0.95456867  0.25163019  0.02351471    -0.04900
C1824       C  0.92220135  0.27796977  0.02512427    -0.02010
C1825       C  0.89444832  0.27416089  0.04262911     0.02970
C1826       C  0.90128166  0.24838124  0.06087122    -0.04900
C1827       C  0.93417755  0.22315905  0.06014828    -0.02000
C1828       C  0.95949852  0.22331868  0.04103784     0.02970
C1829       C  0.91666108  0.30953012  0.00892387     0.37620
C1830       C  0.94165328  0.19641729  0.07887215     0.37610
C1831       C  0.98768272  0.19178660  0.03862471     0.36040
C1832       C  0.85666160  0.29356815  0.04041319     0.36040
N1833       N  0.00933908  0.16582110  0.03698961    -0.38780
N1834       N  0.82602377  0.30776770  0.03819519    -0.38780
N1835       N  0.94763755  0.17512964  0.09383160    -0.38230
N1836       N  0.91111775  0.33537900  0.99661788    -0.38230
C1837       C  0.54097429  0.25285122  0.97862310    -0.04900
C1838       C  0.54044214  0.22183447  0.96266182    -0.02010
C1839       C  0.56623496  0.22165753  0.94375953     0.02970
C1840       C  0.59160808  0.25331182  0.93987949    -0.04900
C1841       C  0.58820809  0.28633140  0.95421664    -0.02000
C1842       C  0.56569077  0.28483419  0.97428407     0.02970
C1843       C  0.51613474  0.18820535  0.96660523     0.37620
C1844       C  0.60626209  0.32289990  0.94815752     0.37610
C1845       C  0.56814294  0.31705452  0.99025316     0.36040
C1846       C  0.56551854  0.18914964  0.92797603     0.36040
N1847       N  0.57104808  0.34334784  0.00245104    -0.38780
N1848       N  0.56472181  0.16318643  0.91541269    -0.38780
N1849       N  0.61939015  0.35259589  0.94319528    -0.38230
N1850       N  0.49742046  0.16083547  0.96951836    -0.38230
C1851       C  0.89857773  0.24710956  0.94303832    -0.04900
C1852       C  0.92965842  0.27379760  0.94323926    -0.02010
C1853       C  0.95478487  0.27615236  0.96238013     0.02970
C1854       C  0.95319856  0.24775134  0.98001751    -0.04900
C1855       C  0.92306564  0.21953947  0.97882623    -0.02000
C1856       C  0.89425962  0.22163848  0.96161475     0.02970
C1857       C  0.93536692  0.29977026  0.92400331     0.37620
C1858       C  0.92061959  0.18825896  0.99538529     0.37610
C1859       C  0.85765271  0.20143931  0.96473795     0.36040
C1860       C  0.97784206  0.31094939  0.96489910     0.36040
N1861       N  0.82782099  0.18683925  0.96785739    -0.38780
N1862       N  0.99434736  0.34002989  0.96633034    -0.38780
N1863       N  0.91782166  0.16271350  0.00813426    -0.38230
N1864       N  0.94004884  0.32041155  0.90865613    -0.38230
C1865       C  0.78575540  0.00534746  0.26743471    -0.04900
C1866       C  0.78237431  0.50789417  0.29209892    -0.02010
C1867       C  0.81522477  0.50260396  0.30627645     0.02970
C1868       C  0.85282328  0.00321655  0.29707806    -0.04900
C1869       C  0.85787201  0.00866245  0.27360383    -0.02000
C1870       C  0.82500326  0.00975647  0.25876377     0.02970
C1871       C  0.74813987  0.52281359  0.30405435     0.37620
C1872       C  0.89735438  0.01076938  0.26457466     0.37610
C1873       C  0.83351202  0.01410450  0.23469262     0.36040
C1874       C  0.81041013  0.49874184  0.33093100     0.36040
N1875       N  0.84360357  0.01833463  0.21601343    -0.38780
N1876       N  0.80671691  0.49566152  0.35049410    -0.38780
N1877       N  0.92877443  0.01229632  0.25734387    -0.38230
N1878       N  0.72246707  0.53556769  0.31464392    -0.38230
C1879       C  0.64585189  0.99448166  0.29763688    -0.04900
C1880       C  0.64812307  0.02564293  0.28209419    -0.02010
C1881       C  0.67877069  0.02752196  0.26578616     0.02970
C1882       C  0.70974552  0.99854214  0.26540941    -0.04900
C1883       C  0.70380656  0.46501365  0.27992425    -0.02000
C1884       C  0.67221321  0.46305869  0.29534029     0.02970
C1885       C  0.61774929  0.05566194  0.28235126     0.37620
C1886       C  0.73173750  0.43298264  0.28159463     0.37610
C1887       C  0.66900147  0.42914099  0.31014523     0.36040
C1888       C  0.67485977  0.05843147  0.24906808     0.36040
N1889       N  0.66685392  0.40204389  0.32179780    -0.38780
N1890       N  0.66893783  0.08308646  0.23597583    -0.38780
N1891       N  0.75150339  0.40593113  0.28472336    -0.38230
N1892       N  0.59363685  0.07957817  0.28235822    -0.38230
C1893       C  0.75122472  0.03662232  0.23304288    -0.04900
C1894       C  0.75532972  0.07620885  0.24092528    -0.02010
C1895       C  0.75440065  0.10797534  0.22542154     0.02970
C1896       C  0.74753362  0.10173918  0.20213593    -0.04900
C1897       C  0.74561163  0.06386352  0.19375723    -0.02000
C1898       C  0.75249272  0.03208519  0.20838852     0.02970
C1899       C  0.75968309  0.08613893  0.26482283     0.37620
C1900       C  0.73995936  0.05763088  0.16933042     0.37610
C1901       C  0.76871447  0.99826588  0.19673664     0.36040
C1902       C  0.75918307  0.14759497  0.23351005     0.36040
N1903       N  0.78251938  0.47297601  0.18635243    -0.38780
N1904       N  0.76301394  0.17914149  0.23994517    -0.38780
N1905       N  0.73551933  0.05279946  0.14993484    -0.38230
N1906       N  0.76369650  0.09728393  0.28332067    -0.38230
C1907       C  0.74635710  0.39614501  0.20502719    -0.04900
C1908       C  0.77760217  0.40010528  0.22053168    -0.02010
C1909       C  0.77849369  0.43132842  0.23637406     0.02970
C1910       C  0.74808746  0.46093008  0.23649609    -0.04900
C1911       C  0.71436878  0.45307065  0.22232235    -0.02000
C1912       C  0.71395126  0.42166165  0.20682330     0.02970
C1913       C  0.80916232  0.37129229  0.22049980     0.37620
C1914       C  0.68060446  0.47907621  0.22104235     0.37610
C1915       C  0.68085276  0.41826263  0.19120868     0.36040
C1916       C  0.80983705  0.42908907  0.25306472     0.36040
N1917       N  0.65443906  0.41609356  0.17887028    -0.38780
N1918       N  0.83490908  0.42425442  0.26614722    -0.38780
N1919       N  0.65236503  0.49745660  0.21840871    -0.38230
N1920       N  0.83445871  0.34861846  0.22055761    -0.38230
C1921       C  0.74900281  0.00075650  0.25060195    -0.02050
C1922       C  0.97811619  0.75037603  0.00154719     0.01000
C1923       C  0.51873745  0.75115726  0.00093469     0.01000
C1924       C  0.75162433  0.99785409  0.75077741    -0.02050
C1925       C  0.49772730  0.75224973  0.75049536    -0.02050
C1926       C  0.75146355  0.97856342  0.00183343     0.01000
C1927       C  0.75149046  0.51899679  0.00119059     0.01000
N1928       N  0.72990002  0.83379199  0.89768792    -0.05680
N1929       N  0.71707767  0.85720571  0.91401869    -0.57800
N1930       N  0.76833957  0.83105873  0.84496737    -0.05360
N1931       N  0.78286127  0.85032774  0.82760420    -0.59930
N1932       N  0.72998552  0.83296789  0.84470617    -0.04960
N1933       N  0.71771249  0.85428339  0.82719358    -0.57770
N1934       N  0.76836492  0.83283062  0.89758873    -0.04630
N1935       N  0.78252501  0.85560683  0.91370189    -0.60280
C1936       C  0.75025891  0.87063478  0.92386716     0.96500
C1937       C  0.75120554  0.86494894  0.81655613     0.96280
N1938       N  0.83191677  0.72902552  0.84489891    -0.05860
N1939       N  0.85422430  0.71597357  0.82818085    -0.58380
N1940       N  0.83234098  0.76614624  0.89764759    -0.03980
N1941       N  0.85529595  0.77943942  0.91392476    -0.59630
N1942       N  0.83250829  0.72785533  0.89756837    -0.05890
N1943       N  0.85567844  0.71434683  0.91394454    -0.58640
N1944       N  0.83232569  0.76716398  0.84548137    -0.03630
N1945       N  0.85504833  0.78095216  0.82931839    -0.59720
Mn1946     Mn  0.80100111  0.80000505  0.87155166     1.18440
C1947       C  0.86840210  0.74871442  0.81857724     0.98580
C1948       C  0.86966709  0.74691420  0.92398791     0.99240
N1949       N  0.66471268  0.76957890  0.84510353    -0.05910
N1950       N  0.64154924  0.78343594  0.82893596    -0.62220
N1951       N  0.66330633  0.73095703  0.89729964    -0.04720
N1952       N  0.63772319  0.71861038  0.91249986    -0.62900
N1953       N  0.66363062  0.76926760  0.89700331    -0.05420
N1954       N  0.63833467  0.78342829  0.91185642    -0.62490
N1955       N  0.66409818  0.73135308  0.84526088    -0.04320
N1956       N  0.64044122  0.71839489  0.82926258    -0.63180
Mn1957     Mn  0.69622340  0.80234719  0.87121394     1.10660
C1958       C  0.62676868  0.75116215  0.81915375     0.99800
C1959       C  0.62224255  0.75171409  0.92153015     0.99880
N1960       N  0.76738183  0.66234915  0.89618405    -0.05430
N1961       N  0.78145302  0.63680631  0.91092614    -0.60800
N1962       N  0.72856031  0.66602394  0.84395413    -0.04750
N1963       N  0.71495604  0.64485175  0.82691906    -0.57530
N1964       N  0.76704426  0.66566853  0.84380373    -0.06060
N1965       N  0.78036399  0.64418277  0.82673275    -0.60370
N1966       N  0.72892686  0.66273928  0.89668164    -0.05040
N1967       N  0.71627082  0.63736212  0.91192038    -0.57550
Mn1968     Mn  0.80056219  0.69540303  0.87070605     1.20190
Mn1969     Mn  0.69538478  0.69690362  0.87101991     1.10090
Cl1970     Cl  0.74821014  0.74858842  0.87139380    -0.85520
C1971       C  0.74948442  0.62125088  0.92077282     0.96810
C1972       C  0.74756563  0.63203012  0.81604429     0.96610
N1973       N  0.66664516  0.73239115  0.15659607    -0.05680
N1974       N  0.64779243  0.71824283  0.17420032    -0.57800
N1975       N  0.66639181  0.77209813  0.10442489    -0.05360
N1976       N  0.64313124  0.78643129  0.08834518    -0.59930
N1977       N  0.66637897  0.73381306  0.10400870    -0.04960
N1978       N  0.64315395  0.72136614  0.08757561    -0.57770
N1979       N  0.66614301  0.77050051  0.15715560    -0.04630
N1980       N  0.64655509  0.78297361  0.17524534    -0.60280
C1981       C  0.63536975  0.74984945  0.18590483     0.96500
C1982       C  0.62888963  0.75445438  0.07791356     0.96280
N1983       N  0.77139808  0.83536623  0.10661153    -0.05860
N1984       N  0.78587046  0.86052236  0.09197660    -0.58380
N1985       N  0.73091748  0.83257304  0.15824633    -0.03980
N1986       N  0.71645192  0.85312360  0.17522485    -0.59630
N1987       N  0.76929629  0.83290563  0.15873686    -0.05890
N1988       N  0.78166095  0.85440929  0.17593836    -0.58640
N1989       N  0.73292631  0.83627696  0.10591893    -0.03630
N1990       N  0.72066206  0.86201885  0.09064803    -0.59720
Mn1991     Mn  0.69815548  0.80373775  0.13124960     1.18440
C1992       C  0.75402250  0.87711520  0.08203263     0.98580
C1993       C  0.74823914  0.86680999  0.18619264     0.99240
N1994       N  0.73114872  0.66615119  0.10489634    -0.05910
N1995       N  0.71749696  0.64168641  0.08956061    -0.62220
N1996       N  0.76812876  0.66690781  0.15794646    -0.04720
N1997       N  0.78090249  0.64592175  0.17534592    -0.62900
N1998       N  0.72970222  0.66742980  0.15732630    -0.05420
N1999       N  0.71546835  0.64662367  0.17427203    -0.62490
N2000       N  0.76961262  0.66489209  0.10526258    -0.04320
N2001       N  0.78267174  0.63957197  0.08997568    -0.63180
Mn2002     Mn  0.69758441  0.69921864  0.13046014     1.10660
C2003       C  0.74979431  0.62511607  0.08021357     0.99800
C2004       C  0.74776138  0.63406825  0.18560154     0.99880
N2005       N  0.83314021  0.76736698  0.15921569    -0.05430
N2006       N  0.85446178  0.78038990  0.17632026    -0.60800
N2007       N  0.83589169  0.72951958  0.10641229    -0.04750
N2008       N  0.85922961  0.71584506  0.09027696    -0.57530
N2009       N  0.83608234  0.76782228  0.10660145    -0.06060
N2010       N  0.85945000  0.78094434  0.09050611    -0.60370
N2011       N  0.83338900  0.72915103  0.15896148    -0.05040
N2012       N  0.85511291  0.71535931  0.17589452    -0.57550
Mn2013     Mn  0.80344141  0.80162257  0.13267182     1.20190
Mn2014     Mn  0.80269794  0.69671395  0.13198765     1.10090
Cl2015     Cl  0.75050616  0.75033294  0.13124016    -0.85520
C2016       C  0.86736868  0.74769420  0.18682964     0.96810
C2017       C  0.87370166  0.74825017  0.08048154     0.96610
N2018       N  0.58469414  0.51878211  0.65588895    -0.05680
N2019       N  0.60592411  0.53197565  0.67302629    -0.57800
N2020       N  0.58661932  0.98265210  0.60256978    -0.05360
N2021       N  0.61247659  0.97089589  0.58712865    -0.59930
N2022       N  0.58538539  0.52089473  0.60345634    -0.04960
N2023       N  0.61036914  0.53566623  0.58878594    -0.57770
N2024       N  0.58611441  0.98051207  0.65526555    -0.04630
N2025       N  0.60858991  0.96696119  0.67196988    -0.60280
C2026       C  0.62012443  0.49938891  0.68314282     0.96500
C2027       C  0.62711114  0.50438678  0.57852455     0.96280
N2028       N  0.98133205  0.91767067  0.60255511    -0.05860
N2029       N  0.96670088  0.89309096  0.58763779    -0.58380
N2030       N  0.52219754  0.91516322  0.65424283    -0.03980
N2031       N  0.53574345  0.89174778  0.67041799    -0.59630
N2032       N  0.98376423  0.91593136  0.65446384    -0.05890
N2033       N  0.97031419  0.89350748  0.67077981    -0.58640
N2034       N  0.51988262  0.91679536  0.60183951    -0.03630
N2035       N  0.53192199  0.89160297  0.58616818    -0.59720
Mn2036     Mn  0.55470238  0.94786366  0.62828446     1.18440
C2037       C  0.99833061  0.87707559  0.57732229     0.98580
C2038       C  0.00289976  0.87856641  0.68059888     0.99240
N2039       N  0.51611894  0.58499262  0.60444117    -0.05910
N2040       N  0.52778166  0.60773361  0.58765213    -0.62220
N2041       N  0.98102052  0.58294429  0.65730938    -0.04720
N2042       N  0.96742631  0.60778043  0.67242501    -0.62900
N2043       N  0.51936507  0.58350988  0.65683621    -0.05420
N2044       N  0.53258513  0.60854793  0.67201788    -0.62490
N2045       N  0.97759265  0.58526648  0.60559556    -0.04320
N2046       N  0.96238405  0.60826981  0.58971234    -0.63180
Mn2047     Mn  0.55219514  0.55278975  0.63001717     1.10660
C2048       C  0.99399725  0.62209203  0.57864158     0.99800
C2049       C  0.99971350  0.62350673  0.68168974     0.99880
N2050       N  0.91946533  0.97901792  0.65770178    -0.05430
N2051       N  0.90054772  0.96322442  0.67486487    -0.60800
N2052       N  0.91262334  0.52142963  0.60669013    -0.04750
N2053       N  0.88821546  0.53672677  0.59159732    -0.57530
N2054       N  0.91372288  0.98332841  0.60503912    -0.06060
N2055       N  0.88994629  0.97182345  0.58859191    -0.60370
N2056       N  0.91820078  0.51711811  0.65912144    -0.05040
N2057       N  0.89781822  0.52798542  0.67730516    -0.57550
Mn2058     Mn  0.94887097  0.94840865  0.62963696     1.20190
Mn2059     Mn  0.94664422  0.55228965  0.63226204     1.10090
Cl2060     Cl  0.00078914  0.50029735  0.62959609    -0.85520
C2061       C  0.88700667  0.49387342  0.68705066     0.96810
C2062       C  0.87403780  0.50552047  0.58053540     0.96610
N2063       N  0.98060847  0.91644156  0.34319653    -0.05680
N2064       N  0.96742161  0.89609383  0.32576428    -0.57800
N2065       N  0.51600761  0.91418681  0.39669079    -0.05360
N2066       N  0.52821066  0.89063325  0.41310906    -0.59930
N2067       N  0.97747722  0.91522214  0.39591653    -0.04960
N2068       N  0.96281390  0.89229374  0.41181470    -0.57770
N2069       N  0.51898980  0.91501512  0.34396907    -0.04630
N2070       N  0.53276720  0.89336283  0.32710530    -0.60280
C2071       C  0.00025303  0.88243859  0.31563559     0.96500
C2072       C  0.99480485  0.87719152  0.42248684     0.96280
N2073       N  0.58381008  0.51577078  0.39779553    -0.05860
N2074       N  0.60909448  0.52891114  0.41287221    -0.58380
N2075       N  0.58374362  0.97765747  0.34515153    -0.03980
N2076       N  0.60345833  0.96370740  0.32762801    -0.59630
N2077       N  0.58521048  0.51578619  0.34540854    -0.05890
N2078       N  0.60639036  0.52849123  0.32817000    -0.58640
N2079       N  0.58412877  0.97750486  0.39770377    -0.03630
N2080       N  0.61001701  0.96409753  0.41271086    -0.59720
Mn2081     Mn  0.55158363  0.94509615  0.37108254     1.18440
C2082       C  0.62555230  0.49655470  0.42211391     0.98580
C2083       C  0.61760036  0.49561850  0.31711628     0.99240
N2084       N  0.91201086  0.98278821  0.39348140    -0.05910
N2085       N  0.88486680  0.97088933  0.40781813    -0.62220
N2086       N  0.91953298  0.52027738  0.34101519    -0.04720
N2087       N  0.89929512  0.53415782  0.32356502    -0.62900
N2088       N  0.91840303  0.98210197  0.34130178    -0.05420
N2089       N  0.89734609  0.96919222  0.32404934    -0.62490
N2090       N  0.91295657  0.52099685  0.39314126    -0.04320
N2091       N  0.88665095  0.53561043  0.40724009    -0.63180
Mn2092     Mn  0.94628669  0.94821974  0.36871539     1.10660
C2093       C  0.86897616  0.50418826  0.41631254     0.99800
C2094       C  0.88631651  0.50195279  0.31287892     0.99880
N2095       N  0.52252049  0.58126036  0.34410100    -0.05430
N2096       N  0.53780499  0.60137247  0.32727085    -0.60800
N2097       N  0.98011728  0.58421097  0.39530210    -0.04750
N2098       N  0.96561530  0.60860848  0.41055742    -0.57530
N2099       N  0.51857021  0.58306114  0.39660160    -0.06060
N2100       N  0.53089389  0.60665973  0.41286636    -0.60370
N2101       N  0.98422388  0.58290889  0.34311132    -0.05040
N2102       N  0.97263379  0.60465361  0.32575053    -0.57550
Mn2103     Mn  0.55333973  0.54975447  0.37123702     1.20190
Mn2104     Mn  0.94843692  0.55290025  0.36825741     1.10090
Cl2105     Cl  0.99988486  0.49894177  0.37043300    -0.85520
C2106       C  0.00642515  0.61590266  0.31586908     0.96810
C2107       C  0.99750783  0.62237025  0.42151594     0.96610
C2108       C  0.49382980  0.76858987  0.50013771     0.01000
C2109       C  0.49339067  0.72812826  0.49980806     0.01000
C2110       C  0.77454136  0.01052851  0.49862619     0.01000
C2111       C  0.73378280  0.00909309  0.49975959     0.01000
C2112       C  0.50285515  0.74884516  0.25110989    -0.02050
C2113       C  0.49771837  0.78454069  0.26856231    -0.04900
C2114       C  0.99172847  0.82387798  0.26054803    -0.02010
C2115       C  0.99170531  0.85579686  0.27595828     0.02970
C2116       C  0.99968084  0.84984833  0.29922199    -0.04900
C2117       C  0.50249885  0.81199715  0.30772606    -0.02000
C2118       C  0.49651109  0.78008968  0.29318627     0.02970
C2119       C  0.98718139  0.83316262  0.23653678     0.37620
C2120       C  0.50852901  0.80587794  0.33213905     0.37610
C2121       C  0.48172324  0.74598376  0.30483265     0.36040
C2122       C  0.98525942  0.89521445  0.26773609     0.36040
N2123       N  0.46904267  0.72037819  0.31518650    -0.38780
N2124       N  0.98006211  0.92661274  0.26118046    -0.38780
N2125       N  0.51331708  0.80112615  0.35152554    -0.38230
N2126       N  0.98309059  0.84298313  0.21776281    -0.38230
C2127       C  0.00858828  0.64441425  0.29666678    -0.04900
C2128       C  0.54043348  0.66980912  0.29492345    -0.02010
C2129       C  0.53889608  0.70178429  0.27979924     0.02970
C2130       C  0.50535419  0.70905865  0.26521447    -0.04900
C2131       C  0.97659959  0.67864309  0.26465666    -0.02000
C2132       C  0.97767459  0.64798159  0.28082741     0.02970
C2133       C  0.57407933  0.66538276  0.31007803     0.37620
C2134       C  0.94737533  0.67480861  0.24681936     0.37610
C2135       C  0.94664996  0.61936699  0.28082072     0.36040
C2136       C  0.57121671  0.72867425  0.28166695     0.36040
N2137       N  0.92164900  0.59698259  0.28077857    -0.38780
N2138       N  0.59824247  0.74802648  0.28457510    -0.38780
N2139       N  0.92420142  0.66898620  0.23280020    -0.38230
N2140       N  0.60096875  0.66225873  0.32203489    -0.38230
C2141       C  0.99564859  0.65149158  0.44050108    -0.04900
C2142       C  0.52447399  0.68043438  0.44294581    -0.02010
C2143       C  0.52324335  0.70667998  0.46158667     0.02970
C2144       C  0.49222597  0.70534598  0.47764158    -0.04900
C2145       C  0.96265271  0.67717517  0.47453851    -0.02000
C2146       C  0.96486845  0.65010331  0.45651811     0.02970
C2147       C  0.55611149  0.68293785  0.42655571     0.37620
C2148       C  0.92969664  0.67522027  0.49010479     0.37610
C2149       C  0.93694160  0.61870301  0.45578937     0.36040
C2150       C  0.55656716  0.73151738  0.46553519     0.36040
N2151       N  0.91506660  0.59331966  0.45564196    -0.38780
N2152       N  0.58399993  0.75027256  0.46847854    -0.38780
N2153       N  0.90291708  0.67304915  0.50207105    -0.38230
N2154       N  0.58148583  0.68495238  0.41357577    -0.38230
C2155       C  0.49541532  0.79351082  0.47855897    -0.04900
C2156       C  0.52377457  0.82342832  0.47701169    -0.02010
C2157       C  0.52129633  0.85201193  0.45978416     0.02970
C2158       C  0.99398425  0.84878562  0.44185977    -0.04900
C2159       C  0.96664081  0.81831027  0.44255474    -0.02000
C2160       C  0.96607992  0.79208400  0.46126475     0.02970
C2161       C  0.55633381  0.82542901  0.49290619     0.37620
C2162       C  0.93853105  0.81405564  0.42413157     0.37610
C2163       C  0.93278668  0.76671454  0.46344037     0.36040
C2164       C  0.54439110  0.88698652  0.46189204     0.36040
N2165       N  0.90501836  0.74792779  0.46466840    -0.38780
N2166       N  0.56168826  0.91547255  0.46401837    -0.38780
N2167       N  0.91611984  0.81058870  0.40943824    -0.38230
N2168       N  0.58311297  0.82806545  0.50492779    -0.38230
C2169       C  0.65761578  0.49743117  0.43980088    -0.04900
C2170       C  0.68018171  0.53137430  0.44287990    -0.02010
C2171       C  0.70583487  0.53490377  0.46173863     0.02970
C2172       C  0.70940622  0.00458130  0.47813036    -0.04900
C2173       C  0.68848379  0.96978846  0.47417595    -0.02000
C2174       C  0.66488898  0.96547703  0.45447602     0.02970
C2175       C  0.67832364  0.56272202  0.42622532     0.37620
C2176       C  0.69010855  0.93800922  0.49043934     0.37610
C2177       C  0.64983427  0.92734333  0.44899186     0.36040
C2178       C  0.72534663  0.57170636  0.46484478     0.36040
N2179       N  0.63915040  0.89647062  0.44446048    -0.38780
N2180       N  0.73851305  0.60242131  0.46654286    -0.38780
N2181       N  0.69020768  0.91186268  0.50289617    -0.38230
N2182       N  0.67712286  0.58778548  0.41302425    -0.38230
C2183       C  0.83792556  0.50633194  0.43442976    -0.04900
C2184       C  0.81944913  0.97244691  0.44284454    -0.02010
C2185       C  0.79625677  0.97432561  0.46283531     0.02970
C2186       C  0.79354701  0.00941565  0.47546050    -0.04900
C2187       C  0.81209510  0.54283534  0.46697860    -0.02000
C2188       C  0.82943096  0.54226860  0.44526038     0.02970
C2189       C  0.82519757  0.93508093  0.43175911     0.37620
C2190       C  0.81567018  0.57733282  0.48107191     0.37610
C2191       C  0.83624255  0.57899144  0.43383962     0.36040
C2192       C  0.78226284  0.93843989  0.47275608     0.36040
N2193       N  0.84076275  0.60833305  0.42456873    -0.38780
N2194       N  0.77283766  0.90913654  0.48060426    -0.38940
N2195       N  0.81898468  0.60487997  0.49223047    -0.38230
N2196       N  0.82983235  0.90502822  0.42321686    -0.38230
C2197       C  0.71003029  0.00978135  0.52173871    -0.04900
C2198       C  0.68067454  0.53892900  0.52506794    -0.02010
C2199       C  0.65681039  0.53891871  0.54468929     0.02970
C2200       C  0.65736480  0.50700225  0.55989617    -0.04900
C2201       C  0.68695873  0.97815350  0.55703762    -0.02000
C2202       C  0.71385846  0.98022286  0.53858235     0.02970
C2203       C  0.67473798  0.57056913  0.50900615     0.37620
C2204       C  0.69108037  0.94713558  0.57367943     0.37610
C2205       C  0.74464145  0.95102304  0.53674264     0.36040
C2206       C  0.63286508  0.57314707  0.54942618     0.36040
N2207       N  0.76922673  0.92768454  0.53552702    -0.38780
N2208       N  0.61522848  0.60127717  0.55335387    -0.38780
N2209       N  0.69453997  0.92243063  0.58699123    -0.38230
N2210       N  0.66744513  0.59704156  0.49747547    -0.38230
C2211       C  0.84939449  0.50858248  0.55971426    -0.04900
C2212       C  0.81442399  0.53065288  0.55941983    -0.02010
C2213       C  0.79319895  0.53558627  0.53881071     0.02970
C2214       C  0.80239702  0.01271203  0.51926504    -0.04900
C2215       C  0.84002094  0.99338095  0.51940736    -0.02000
C2216       C  0.86363241  0.99315416  0.53920635     0.02970
C2217       C  0.80042000  0.54874683  0.58027291     0.37620
C2218       C  0.85742528  0.97521184  0.49950125     0.37610
C2219       C  0.90428957  0.98009857  0.53802454     0.36040
C2220       C  0.76695352  0.56877817  0.53698642     0.36040
N2221       N  0.93685128  0.97063260  0.53701881    -0.38780
N2222       N  0.74737284  0.59641746  0.53601343    -0.38780
N2223       N  0.87422235  0.96091890  0.48448343    -0.38230
N2224       N  0.78909503  0.56285076  0.59697784    -0.38230
C2225       C  0.49407334  0.70269466  0.52129145    -0.04900
C2226       C  0.46656343  0.70740002  0.53937242    -0.02010
C2227       C  0.46810614  0.68271722  0.55877556     0.02970
C2228       C  0.99225340  0.64916258  0.55876604    -0.04900
C2229       C  0.01512535  0.64114723  0.53945434    -0.02000
C2230       C  0.01928897  0.66926045  0.52217525     0.02970
C2231       C  0.43353913  0.73389186  0.53730684     0.37620
C2232       C  0.03067495  0.60210098  0.53604189     0.37610
C2233       C  0.05029824  0.66283554  0.50571086     0.36040
C2234       C  0.44430059  0.69164801  0.57860936     0.36040
N2235       N  0.07570887  0.65627639  0.49321080    -0.38780
N2236       N  0.42553240  0.69893079  0.59450078    -0.38780
N2237       N  0.04165113  0.57056249  0.53298084    -0.38230
N2238       N  0.40586644  0.75352434  0.53626021    -0.38230
C2239       C  0.99585835  0.84657734  0.55900285    -0.04900
C2240       C  0.96364267  0.84643599  0.54375483    -0.02010
C2241       C  0.96287472  0.82062121  0.52507553     0.02970
C2242       C  0.49278755  0.79208917  0.52207583    -0.04900
C2243       C  0.52337479  0.78996208  0.53849199    -0.02000
C2244       C  0.52510066  0.81727313  0.55662582     0.02970
C2245       C  0.93042418  0.87251063  0.54709814     0.37620
C2246       C  0.55500148  0.76183050  0.53587867     0.37610
C2247       C  0.55667423  0.81434569  0.57316556     0.36040
C2248       C  0.93028524  0.82367644  0.50915998     0.36040
N2249       N  0.58184925  0.81182184  0.58636589    -0.38780
N2250       N  0.90358439  0.82730555  0.49711360    -0.38780
N2251       N  0.58063504  0.73979094  0.53396829    -0.38230
N2252       N  0.90311641  0.89217145  0.54977064    -0.38230
C2253       C  0.60872721  0.74789061  0.20619533    -0.04900
C2254       C  0.60129359  0.78052189  0.22014460    -0.02010
C2255       C  0.57117106  0.77988525  0.23681834     0.02970
C2256       C  0.54312305  0.74874858  0.23721812    -0.04900
C2257       C  0.55391863  0.71478765  0.22401399    -0.02000
C2258       C  0.58835459  0.71348342  0.21090000     0.02970
C2259       C  0.62597030  0.81448935  0.21822818     0.37620
C2260       C  0.52887889  0.68127268  0.22139976     0.37610
C2261       C  0.60176005  0.67618308  0.20187530     0.36040
C2262       C  0.57339213  0.80993083  0.25409346     0.36040
N2263       N  0.61230186  0.64627358  0.19503087    -0.38780
N2264       N  0.57803849  0.83395863  0.26765514    -0.38780
N2265       N  0.51152612  0.65323401  0.21778698    -0.38230
N2266       N  0.64546184  0.84167477  0.21691013    -0.38230
C2267       C  0.90043616  0.74788011  0.20311083    -0.04900
C2268       C  0.93843742  0.74681403  0.19447197    -0.02010
C2269       C  0.97070182  0.75292069  0.20899559     0.02970
C2270       C  0.96658544  0.75166597  0.23365008    -0.04900
C2271       C  0.92677566  0.75510345  0.24177753    -0.02000
C2272       C  0.89448083  0.75378581  0.22649944     0.02970
C2273       C  0.94419685  0.74187463  0.16995924     0.37620
C2274       C  0.91718056  0.75862855  0.26576548     0.37610
C2275       C  0.85462676  0.75676503  0.23496458     0.36040
C2276       C  0.00490442  0.76728275  0.19718870     0.36040
N2277       N  0.82290038  0.75910882  0.24171903    -0.38780
N2278       N  0.03038835  0.77953270  0.18649153    -0.38780
N2279       N  0.90626209  0.76195669  0.28436202    -0.38230
N2280       N  0.94863082  0.73792793  0.15049969    -0.38230
C2281       C  0.74902074  0.59482388  0.06156491    -0.04900
C2282       C  0.78154633  0.56979852  0.05756012    -0.02010
C2283       C  0.78181448  0.54372935  0.03877365     0.02970
C2284       C  0.75033811  0.54348175  0.02285762    -0.04900
C2285       C  0.71781263  0.56847576  0.02710456    -0.02000
C2286       C  0.71588069  0.59117279  0.04717047     0.02970
C2287       C  0.81456756  0.56953264  0.07321125     0.37620
C2288       C  0.68548462  0.57148095  0.01105718     0.37610
C2289       C  0.67861164  0.60892952  0.05327578     0.36040
C2290       C  0.81642355  0.51979852  0.03517429     0.36040
N2291       N  0.64837710  0.62179813  0.05826587    -0.38780
N2292       N  0.84524952  0.50228227  0.03285615    -0.38780
N2293       N  0.65885086  0.57535254  0.99898246    -0.38230
N2294       N  0.84096110  0.56908446  0.08564320    -0.38230
C2295       C  0.75548713  0.90761728  0.06367966    -0.04900
C2296       C  0.78857264  0.91055979  0.04933966    -0.02010
C2297       C  0.78637160  0.93213403  0.02890209     0.02970
C2298       C  0.75371572  0.95674448  0.02429334    -0.04900
C2299       C  0.72261618  0.95782643  0.04030365    -0.02000
C2300       C  0.72316848  0.93287001  0.05955022     0.02970
C2301       C  0.82581546  0.89299882  0.05577171     0.37620
C2302       C  0.68766531  0.98097291  0.03592822     0.37610
C2303       C  0.69058549  0.93420655  0.07539562     0.36040
C2304       C  0.81814325  0.92808741  0.01264092     0.36040
N2305       N  0.66456278  0.93547787  0.08799242    -0.38780
N2306       N  0.84412867  0.92372577  0.00023664    -0.38780
N2307       N  0.65866753  0.99791918  0.03289750    -0.38230
N2308       N  0.85601461  0.88022563  0.06101681    -0.38230
C2309       C  0.75116040  0.59137411  0.93958850    -0.04900
C2310       C  0.71950738  0.56619607  0.94403436    -0.02010
C2311       C  0.72065626  0.54046907  0.96302941     0.02970
C2312       C  0.75187313  0.54199713  0.97905495    -0.04900
C2313       C  0.78324497  0.56750044  0.97443847    -0.02000
C2314       C  0.78458795  0.58847577  0.95380429     0.02970
C2315       C  0.68628956  0.56533018  0.92858599     0.37620
C2316       C  0.81535777  0.57247350  0.99038224     0.37610
C2317       C  0.82163881  0.60498011  0.94689824     0.36040
C2318       C  0.68831352  0.51426932  0.96661054     0.36040
N2319       N  0.85165513  0.61681705  0.94123524    -0.38780
N2320       N  0.66206825  0.49381473  0.96924697    -0.38780
N2321       N  0.84195147  0.57837720  0.00210402    -0.38230
N2322       N  0.65974906  0.56447646  0.91628247    -0.38230
C2323       C  0.75029676  0.95271853  0.98061494    -0.04900
C2324       C  0.72348614  0.92123246  0.97954649    -0.02010
C2325       C  0.72613978  0.89309458  0.96208668     0.02970
C2326       C  0.75104036  0.89860504  0.94336240    -0.04900
C2327       C  0.77704477  0.93019430  0.94370633    -0.02000
C2328       C  0.77847249  0.95544468  0.96282159     0.02970
C2329       C  0.69226752  0.91683068  0.99600619     0.37620
C2330       C  0.80301055  0.93648399  0.92451892     0.37610
C2331       C  0.81191266  0.98062931  0.96492213     0.36040
C2332       C  0.70639660  0.85621725  0.96475731     0.36040
N2333       N  0.83996829  0.99903220  0.96604685    -0.38780
N2334       N  0.69198816  0.82626984  0.96737066    -0.38780
N2335       N  0.82364869  0.94159846  0.90919769    -0.38230
N2336       N  0.66642152  0.91149761  0.00830340    -0.38230
C2337       C  0.99852699  0.65580189  0.69872533    -0.04900
C2338       C  0.52843545  0.68345051  0.69951969    -0.02010
C2339       C  0.52764448  0.71369630  0.71583417     0.02970
C2340       C  0.99739237  0.71647078  0.73299913    -0.04900
C2341       C  0.96566454  0.68910538  0.73062607    -0.02000
C2342       C  0.96615336  0.66040168  0.71334413     0.02970
C2343       C  0.55978818  0.68215449  0.68274121     0.37620
C2344       C  0.92932443  0.69093812  0.74349721     0.37610
C2345       C  0.93099368  0.63769457  0.70949403     0.36040
C2346       C  0.56081905  0.73976530  0.71541242     0.36040
N2347       N  0.90219382  0.62129226  0.70608074    -0.38780
N2348       N  0.58858616  0.75852681  0.71396288    -0.38780
N2349       N  0.89930725  0.69091578  0.75264343    -0.38230
N2350       N  0.58480041  0.68142211  0.66945344    -0.38230
C2351       C  0.99870414  0.78909299  0.73366450    -0.04900
C2352       C  0.02873509  0.81867859  0.73339527    -0.02010
C2353       C  0.02778210  0.84926520  0.71718378     0.02970
C2354       C  0.00197782  0.84824206  0.69860751    -0.04900
C2355       C  0.47477578  0.81819731  0.69709754    -0.02000
C2356       C  0.47098222  0.79108844  0.71495591     0.02970
C2357       C  0.06405421  0.81752038  0.74714082     0.37620
C2358       C  0.45082762  0.81432066  0.67661179     0.37610
C2359       C  0.43618369  0.76734427  0.71383918     0.36040
C2360       C  0.05419988  0.88197533  0.71944804     0.36040
N2361       N  0.40703137  0.75099457  0.71155923    -0.38780
N2362       N  0.07508479  0.90802870  0.72134864    -0.38780
N2363       N  0.43197271  0.81102594  0.66028804    -0.38230
N2364       N  0.09339027  0.81797038  0.75706704    -0.38230
C2365       C  0.53382063  0.75102006  0.76795086    -0.04900
C2366       C  0.53477382  0.77901367  0.78641768    -0.02010
C2367       C  0.56393767  0.77757386  0.80344390     0.02970
C2368       C  0.59557337  0.75152355  0.80158709    -0.04900
C2369       C  0.59618481  0.72421215  0.78384290    -0.02000
C2370       C  0.56438080  0.72140664  0.76850814     0.02970
C2371       C  0.50793674  0.81202189  0.78777207     0.37620
C2372       C  0.62966006  0.69790156  0.78160802     0.37610
C2373       C  0.56318592  0.68492340  0.75606525     0.36040
C2374       C  0.56075343  0.80284285  0.82332886     0.36040
N2375       N  0.56366335  0.65484449  0.74715129    -0.38780
N2376       N  0.55801159  0.82278172  0.83918310    -0.38780
N2377       N  0.65611642  0.67684324  0.77976951    -0.38230
N2378       N  0.98858892  0.83957141  0.79013034    -0.38230
C2379       C  0.96108347  0.75200237  0.76739139    -0.04900
C2380       C  0.93043985  0.78139814  0.76828931    -0.02010
C2381       C  0.89884852  0.77801280  0.78372581     0.02970
C2382       C  0.89919521  0.74925560  0.80077327    -0.04900
C2383       C  0.93020045  0.72228060  0.80168718    -0.02000
C2384       C  0.95941881  0.72214462  0.78479763     0.02970
C2385       C  0.93124242  0.81774676  0.75569209     0.37620
C2386       C  0.93260225  0.69433921  0.82037481     0.37610
C2387       C  0.98513475  0.68821502  0.78489109     0.36040
C2388       C  0.86556528  0.80471095  0.78207002     0.36040
N2389       N  0.00301218  0.65952338  0.78633434    -0.38780
N2390       N  0.83911379  0.82590540  0.78060581    -0.38780
N2391       N  0.93467653  0.67210201  0.83519177    -0.38230
N2392       N  0.93062178  0.84758216  0.74648999    -0.38230
C2393       C  0.79223518  0.49490729  0.73706009    -0.04900
C2394       C  0.82406998  0.52222658  0.73823644    -0.02010
C2395       C  0.85736732  0.51800670  0.72389775     0.02970
C2396       C  0.85829415  0.49049888  0.70625631    -0.04900
C2397       C  0.83038072  0.96083782  0.70643613    -0.02000
C2398       C  0.79897139  0.96184966  0.72213253     0.02970
C2399       C  0.82600475  0.55386467  0.75449312     0.37620
C2400       C  0.83230344  0.92981557  0.68952272     0.37610
C2401       C  0.77189743  0.92981367  0.72021948     0.36040
C2402       C  0.89308768  0.53878652  0.72897062     0.36040
N2403       N  0.75274300  0.90281439  0.71704503    -0.38780
N2404       N  0.92210391  0.55384325  0.73368863    -0.38780
N2405       N  0.83347879  0.90504556  0.67614651    -0.38230
N2406       N  0.83049930  0.57911391  0.76728675    -0.38230
C2407       C  0.71629828  0.50256882  0.73255955    -0.04900
C2408       C  0.67608418  0.00733388  0.73962304    -0.02010
C2409       C  0.64482515  0.00651844  0.72350196     0.02970
C2410       C  0.65224412  0.50002289  0.70025379    -0.04900
C2411       C  0.69088209  0.49905820  0.69261020    -0.02000
C2412       C  0.72203146  0.50498643  0.70801133     0.02970
C2413       C  0.66501241  0.01221832  0.76329721     0.37620
C2414       C  0.69852286  0.49484817  0.66824866     0.37610
C2415       C  0.75676350  0.52077902  0.69735862     0.36040
C2416       C  0.60450091  0.01085613  0.73094197     0.36040
N2417       N  0.78306819  0.53420443  0.68789392    -0.38780
N2418       N  0.57236768  0.01429715  0.73685242    -0.38780
N2419       N  0.70450450  0.49152881  0.64889228    -0.38230
N2420       N  0.65303389  0.01680487  0.78157943    -0.38230
C2421       C  0.74725643  0.53394639  0.76830498    -0.04900
C2422       C  0.74483430  0.57368584  0.76036865    -0.02010
C2423       C  0.74519974  0.60559094  0.77587398     0.02970
C2424       C  0.74734936  0.59931046  0.79949623    -0.04900
C2425       C  0.74625345  0.56136620  0.80787873    -0.02000
C2426       C  0.74226498  0.52956576  0.79286374     0.02970
C2427       C  0.74274563  0.58362093  0.73637605     0.37620
C2428       C  0.74714742  0.55516211  0.83252922     0.37610
C2429       C  0.72595917  0.49544910  0.80376643     0.36040
C2430       C  0.74509534  0.64534109  0.76746178     0.36040
N2431       N  0.71196500  0.46997268  0.81362657    -0.38780
N2432       N  0.74521066  0.67698794  0.76072817    -0.38780
N2433       N  0.74783180  0.55036128  0.85209790    -0.38230
N2434       N  0.74041167  0.59501925  0.71781740    -0.38230
C2435       C  0.75230550  0.95811246  0.76520110    -0.04900
C2436       C  0.78514788  0.95032203  0.78026744    -0.02010
C2437       C  0.78598444  0.91818281  0.79531310     0.02970
C2438       C  0.75354290  0.89355313  0.79719852    -0.04900
C2439       C  0.72286658  0.89780004  0.78125519    -0.02000
C2440       C  0.72248549  0.92861889  0.76498032     0.02970
C2441       C  0.81730646  0.97709330  0.78315352     0.37620
C2442       C  0.69179070  0.86930084  0.78115747     0.37610
C2443       C  0.69205758  0.92650725  0.74779168     0.36040
C2444       C  0.81998046  0.91258015  0.81011359     0.36040
N2445       N  0.66774546  0.92184579  0.73428677    -0.38780
N2446       N  0.84719802  0.90851283  0.82172547    -0.38780
N2447       N  0.66716710  0.84650549  0.78111738    -0.38230
N2448       N  0.84423711  0.99584237  0.78744972    -0.38230
C2449       C  0.54481589  0.75125784  0.02207274    -0.04900
C2450       C  0.54132230  0.78006485  0.03942384    -0.02010
C2451       C  0.56792417  0.78053491  0.05804991     0.02970
C2452       C  0.60064160  0.75502350  0.05845559    -0.04900
C2453       C  0.60626060  0.72906424  0.04020995    -0.02000
C2454       C  0.57738953  0.72502932  0.02323325     0.02970
C2455       C  0.51276819  0.81138886  0.03751469     0.37620
C2456       C  0.64372468  0.70923434  0.03756086     0.37610
C2457       C  0.58168556  0.69269153  0.00750252     0.36040
C2458       C  0.56170065  0.80767539  0.07668757     0.36040
N2459       N  0.58650032  0.66606681  0.99570477    -0.38780
N2460       N  0.55667653  0.82930931  0.09156220    -0.38780
N2461       N  0.67407182  0.69464373  0.03499258    -0.38230
N2462       N  0.49086555  0.83723419  0.03630200    -0.38230
C2463       C  0.95456939  0.75162925  0.02351470    -0.04900
C2464       C  0.92220191  0.77796864  0.02512421    -0.02010
C2465       C  0.89444882  0.77415961  0.04262899     0.02970
C2466       C  0.90128219  0.74837996  0.06087111    -0.04900
C2467       C  0.93417813  0.72315785  0.06014818    -0.02000
C2468       C  0.95949927  0.72331770  0.04103781     0.02970
C2469       C  0.91666156  0.80952899  0.00892381     0.37620
C2470       C  0.94165377  0.69641596  0.07887200     0.37610
C2471       C  0.98768373  0.69178584  0.03862472     0.36040
C2472       C  0.85666206  0.79356679  0.04041306     0.36040
N2473       N  0.00934030  0.66582052  0.03698965    -0.38780
N2474       N  0.82602421  0.80776631  0.03819507    -0.38780
N2475       N  0.94763797  0.67512818  0.09383139    -0.38230
N2476       N  0.91111815  0.83537785  0.99661782    -0.38230
C2477       C  0.54097523  0.75285082  0.97862325    -0.04900
C2478       C  0.54044321  0.72183404  0.96266199    -0.02010
C2479       C  0.56623592  0.72165727  0.94375965     0.02970
C2480       C  0.59160886  0.75331169  0.93987958    -0.04900
C2481       C  0.58820882  0.78633123  0.95421676    -0.02000
C2482       C  0.56569156  0.78483390  0.97428421     0.02970
C2483       C  0.51613610  0.68820474  0.96660547     0.37620
C2484       C  0.60626272  0.82289978  0.94815764     0.37610
C2485       C  0.56814363  0.81705424  0.99025331     0.36040
C2486       C  0.56551956  0.68914939  0.92797614     0.36040
N2487       N  0.57104867  0.84334754  0.00245120    -0.38780
N2488       N  0.56472287  0.66318619  0.91541279    -0.38780
N2489       N  0.61939071  0.85259580  0.94319541    -0.38230
N2490       N  0.49742207  0.66083471  0.96951865    -0.38230
C2491       C  0.89857864  0.74710871  0.94303832    -0.04900
C2492       C  0.92965928  0.77379682  0.94323928    -0.02010
C2493       C  0.95478574  0.77615158  0.96238014     0.02970
C2494       C  0.95319953  0.74775048  0.98001749    -0.04900
C2495       C  0.92306674  0.71953850  0.97882616    -0.02000
C2496       C  0.89426066  0.72163752  0.96161471     0.02970
C2497       C  0.93536768  0.79976958  0.92400337     0.37620
C2498       C  0.92062084  0.68825787  0.99538515     0.37610
C2499       C  0.85765378  0.70143833  0.96473794     0.36040
C2500       C  0.97784279  0.81094869  0.96489916     0.36040
N2501       N  0.82782206  0.68683828  0.96785742    -0.38780
N2502       N  0.99434797  0.84002925  0.96633044    -0.38780
N2503       N  0.91782305  0.66271231  0.00813406    -0.38230
N2504       N  0.94004951  0.82041096  0.90865621    -0.38230
C2505       C  0.78574610  0.50534723  0.26743501    -0.04900
C2506       C  0.78238468  0.00789575  0.29209862    -0.02010
C2507       C  0.81523535  0.00260450  0.30627574     0.02970
C2508       C  0.85281301  0.50321734  0.29707923    -0.04900
C2509       C  0.85786244  0.50866395  0.27360515    -0.02000
C2510       C  0.82499429  0.50975731  0.25876467     0.02970
C2511       C  0.74815170  0.02281836  0.30405417     0.37620
C2512       C  0.89734513  0.51077232  0.26457656     0.37610
C2513       C  0.83350429  0.51410548  0.23469368     0.36040
C2514       C  0.81042127  0.99874291  0.33093036     0.36040
N2515       N  0.84359711  0.51833575  0.21601474    -0.38780
N2516       N  0.80672855  0.99566297  0.35049352    -0.38780
N2517       N  0.92876546  0.51230036  0.25734627    -0.38230
N2518       N  0.72248005  0.03557498  0.31464366    -0.38230
C2519       C  0.64584003  0.49447970  0.29763371    -0.04900
C2520       C  0.64811316  0.52564241  0.28209211    -0.02010
C2521       C  0.67876118  0.52752138  0.26578432     0.02970
C2522       C  0.70973596  0.49854146  0.26540787    -0.04900
C2523       C  0.70381802  0.96501544  0.27992698    -0.02000
C2524       C  0.67222736  0.96306225  0.29534500     0.02970
C2525       C  0.61774063  0.55566263  0.28234975     0.37620
C2526       C  0.73174842  0.93298381  0.28159627     0.37610
C2527       C  0.66902137  0.92914894  0.31015393     0.36040
C2528       C  0.67485079  0.55843087  0.24906618     0.36040
N2529       N  0.66687855  0.90205559  0.32180985    -0.38780
N2530       N  0.66892950  0.58308579  0.23597379    -0.38780
N2531       N  0.75151396  0.90593179  0.28472423    -0.38230
N2532       N  0.59362914  0.57957980  0.28235713    -0.38230
C2533       C  0.75121740  0.53662256  0.23304276    -0.04900
C2534       C  0.75532112  0.57620884  0.24092582    -0.02010
C2535       C  0.75439440  0.60797586  0.22542244     0.02970
C2536       C  0.74753128  0.60174045  0.20213638    -0.04900
C2537       C  0.74561010  0.56386511  0.19375712    -0.02000
C2538       C  0.75248827  0.53208614  0.20838836     0.02970
C2539       C  0.75966996  0.58613800  0.26482381     0.37620
C2540       C  0.73996120  0.55763348  0.16932993     0.37610
C2541       C  0.76870968  0.49826649  0.19673663     0.36040
C2542       C  0.75917517  0.64759524  0.23351171     0.36040
N2543       N  0.78252425  0.97297558  0.18635232    -0.38780
N2544       N  0.76300471  0.67914158  0.23994744    -0.38780
N2545       N  0.73552389  0.55280287  0.14993407    -0.38230
N2546       N  0.76367931  0.59728201  0.28332215    -0.38230
C2547       C  0.74636146  0.89614519  0.20502763    -0.04900
C2548       C  0.77760775  0.90010535  0.22053134    -0.02010
C2549       C  0.77850041  0.93132824  0.23637388     0.02970
C2550       C  0.74809431  0.96092997  0.23649678    -0.04900
C2551       C  0.71437449  0.95307059  0.22232393    -0.02000
C2552       C  0.71395571  0.92166168  0.20682480     0.02970
C2553       C  0.80916821  0.87129271  0.22049838     0.37620
C2554       C  0.68060994  0.97907597  0.22104500     0.37610
C2555       C  0.68085581  0.91826259  0.19121121     0.36040
C2556       C  0.80984495  0.92908863  0.25306378     0.36040
N2557       N  0.65444097  0.91609349  0.17887365    -0.38780
N2558       N  0.83491790  0.92425368  0.26614564    -0.38780
N2559       N  0.65237013  0.99745616  0.21841226    -0.38230
N2560       N  0.83446495  0.84861929  0.22055533    -0.38230
loop_ 
_geom_bond_atom_site_label_1 
_geom_bond_atom_site_label_2 
_geom_bond_distance 
_geom_bond_site_symmetry_2 
_ccdc_geom_bond_type 
C1          C630   1.600       .  S
C1         C1225   1.604       .  S
C1         C1242   1.602       .  S
C1         C1253   1.608       .  S
C2          C543   1.519       .  S
C2          C574   1.523   1_554  S
C2         C1283   1.390       .  D
C3          C529   1.523       .  S
C3          C557   1.515   1_554  S
C3         C1282   1.390   1_455  D
C4          C515   1.606       .  S
C4         C1113   1.608       .  S
C4         C1127   1.615       .  S
C4         C1141   1.616       .  S
C5          C445   1.600   1_655  S
C5         C1700   1.601       .  S
C5         C1711   1.605       .  S
C5         C1739   1.598       .  S
C6          C378   1.515       .  S
C6          C403   1.528   1_554  S
C6          C647   1.391       .  D
C7          C364   1.523       .  S
C7          C392   1.518   1_554  S
C7          C646   1.391   1_545  D
N8            N9   1.322       .  A
N8           N14   1.315       .  A
N8          Mn37   2.218       .  S
N9           C16   1.357       .  A
N10          N12   1.312       .  A
N10          N11   1.315       .  A
N10         Mn26   2.184       .  S
N11          C17   1.351       .  A
N12          N13   1.324       .  A
N12         Mn37   2.211       .  S
N13          C17   1.359       .  A
N14          N15   1.321       .  A
N14         Mn26   2.196       .  S
N15          C16   1.352       .  A
C16         C406   1.493       .  S
C17         C518   1.503       .  S
N18          N24   1.312       .  A
N18          N19   1.318       .  A
N18         Mn48   2.192       .  S
N19          C27   1.354       .  A
N20          N21   1.318       .  A
N20          N22   1.317       .  A
N20         Mn26   2.190       .  S
N21          C28   1.350       .  A
N22          N23   1.322       .  A
N22         Mn48   2.221       .  S
N23          C28   1.357       .  A
N24          N25   1.318       .  A
N24         Mn26   2.176       .  S
N25          C27   1.350       .  A
Mn26        Cl50   2.541       .  S
C27         C462   1.484       .  S
C28         C571   1.488       .  S
N29          N30   1.318       .  A
N29          N35   1.315       .  A
N29         Mn37   2.188       .  S
N30          C38   1.352       .  A
N31          N33   1.318       .  A
N31          N32   1.323       .  A
N31         Mn49   2.218       .  S
N32          C39   1.358       .  A
N33          N34   1.317       .  A
N33         Mn37   2.203       .  S
N34          C39   1.352       .  A
N35          N36   1.317       .  A
N35         Mn49   2.186       .  S
N36          C38   1.350       .  A
Mn37        Cl50   2.549       .  S
C38         C448   1.479       .  S
C39         C560   1.503       .  S
N40          N41   1.317       .  A
N40          N46   1.315       .  A
N40         Mn48   2.200       .  S
N41          C51   1.353       .  A
N42          N43   1.322       .  A
N42          N44   1.315       .  A
N42         Mn49   2.215       .  S
N43          C52   1.354       .  A
N44          N45   1.322       .  A
N44         Mn48   2.204       .  S
N45          C52   1.353       .  A
N46          N47   1.325       .  A
N46         Mn49   2.215       .  S
N47          C51   1.359       .  A
Mn48        Cl50   2.544       .  S
Mn49        Cl50   2.549       .  S
C51         C389   1.506       .  S
C52         C504   1.485       .  S
N53          N54   1.313       .  A
N53          N59   1.311       .  A
N53         Mn82   2.178       .  S
N54          C61   1.350       .  A
N55          N57   1.317       .  A
N55          N56   1.322       .  A
N55         Mn71   2.202       .  S
N56          C62   1.353       .  A
N57          N58   1.320       .  A
N57         Mn82   2.216       .  S
N58          C62   1.355       .  A
N59          N60   1.323       .  A
N59         Mn71   2.200       .  S
N60          C61   1.358       .  A
C61         C333   1.501       .  S
C62         C532   1.491       .  S
N63          N69   1.316       .  A
N63          N64   1.319       .  A
N63         Mn93   2.198       .  S
N64          C72   1.353       .  A
N65          N66   1.314       .  A
N65          N67   1.312       .  A
N65         Mn71   2.180       .  S
N66          C73   1.350       .  A
N67          N68   1.321       .  A
N67         Mn93   2.198       .  S
N68          C73   1.356       .  A
N69          N70   1.322       .  A
N69         Mn71   2.215       .  S
N70          C72   1.357       .  A
Mn71        Cl95   2.549       .  S
C72         C375   1.503       .  S
C73         C627   1.496       .  S
N74          N75   1.319       .  A
N74          N80   1.315       .  A
N74         Mn82   2.197       .  S
N75          C83   1.353       .  A
N76          N78   1.314       .  A
N76          N77   1.318       .  A
N76         Mn94   2.190       .  S
N77          C84   1.351       .  A
N78          N79   1.320       .  A
N78         Mn82   2.199       .  S
N79          C84   1.352       .  A
N80          N81   1.324       .  A
N80         Mn94   2.224       .  S
N81          C83   1.359       .  A
Mn82        Cl95   2.538       .  S
C83         C361   1.510       .  S
C84         C616   1.474       .  S
N85          N86   1.319       .  A
N85          N91   1.314       .  A
N85         Mn93   2.189       .  S
N86          C96   1.350       .  A
N87          N88   1.321       .  A
N87          N89   1.317       .  A
N87         Mn94   2.200       .  S
N88          C97   1.353       .  A
N89          N90   1.320       .  A
N89         Mn93   2.215       .  S
N90          C97   1.354       .  A
N91          N92   1.321       .  A
N91         Mn94   2.204       .  S
N92          C96   1.353       .  A
Mn93        Cl95   2.543       .  S
Mn94        Cl95   2.550       .  S
C96         C347   1.477       .  S
C97         C546   1.488       .  S
N98          N99   1.320       .  A
N98         N744   1.317   1_545  A
N98        Mn127   2.203       .  S
N99         C106   1.352   1_545  A
N100        N101   1.326       .  A
N100        N742   1.316       .  A
N100       Mn116   2.220       .  S
N101        C747   1.358       .  A
N102        N103   1.319       .  A
N102        N740   1.316   1_545  A
N102       Mn127   2.211       .  S
N103        C107   1.354       .  A
N104        N105   1.323       .  A
N104        N738   1.317       .  A
N104       Mn116   2.220       .  S
N105        C746   1.355       .  A
C106        N745   1.355       .  A
C106        C490   1.485   1_565  S
C107        N741   1.358   1_545  A
C107        C280   1.508       .  S
N108        N109   1.317       .  A
N108       N1394   1.319       .  A
N108       Mn138   2.201       .  S
N109        C117   1.352       .  A
N110        N111   1.322       .  A
N110       N1392   1.314   1_455  A
N110       Mn116   2.201       .  S
N111       C1398   1.355       .  A
N112        N113   1.315       .  A
N112       N1390   1.314       .  A
N112       Mn138   2.177       .  S
N113        C118   1.348       .  A
N114        N115   1.325       .  A
N114       N1388   1.319   1_455  A
N114       Mn116   2.231       .  S
N115       C1397   1.359   1_455  A
Mn116     Cl2060   2.564       .  S
C117       N1395   1.359       .  A
C117        C319   1.503       .  S
C118       N1391   1.355       .  A
C118        C434   1.483       .  S
N119        N120   1.321       .  A
N119       N1405   1.319   1_455  A
N119       Mn127   2.224       .  S
N120       C1408   1.356   1_455  A
N121        N122   1.312       .  A
N121       N1403   1.311       .  A
N121       Mn139   2.159       .  S
N122        C129   1.348       .  A
N123        N124   1.320       .  A
N123       N1401   1.311   1_455  A
N123       Mn127   2.196       .  S
N124       C1409   1.356   1_455  A
N125        N126   1.322       .  A
N125       N1399   1.319       .  A
N125       Mn139   2.209       .  S
N126        C128   1.353       .  A
Mn127     Cl1420   2.534       .  S
C128       N1400   1.356       .  A
C128        C308   1.490       .  S
C129       N1404   1.356       .  A
C129        C417   1.493       .  S
N130        N131   1.317       .  A
N130        N776   1.313       .  A
N130       Mn138   2.192       .  S
N131        C781   1.351       .  A
N132        N133   1.318       .  A
N132        N774   1.314   1_545  A
N132       Mn139   2.177       .  S
N133        C142   1.348       .  A
N134        N135   1.322       .  A
N134        N772   1.314       .  A
N134       Mn138   2.217       .  S
N135        C782   1.358       .  A
N136        N137   1.325       .  A
N136        N770   1.313   1_545  A
N136       Mn139   2.217       .  S
N137        C141   1.360   1_545  A
Mn138      Cl780   2.532       .  S
Mn139      Cl140   2.563       .  S
Cl140     Mn2036   2.564   1_545  S
Cl140     Mn1407   2.534       .  S
Cl140      Mn778   2.532   1_545  S
C141        N771   1.351       .  A
C141        C476   1.500       .  S
C142        N775   1.358   1_545  A
C142        C291   1.483       .  S
N143        N144   1.319       .  A
N143       N1429   1.313       .  A
N143       Mn172   2.187       .  S
N144        C151   1.350       .  A
N145        N146   1.320       .  A
N145       N1427   1.318   1_455  A
N145       Mn161   2.213       .  S
N146       C1432   1.355   1_455  A
N147        N148   1.323       .  A
N147       N1425   1.318       .  A
N147       Mn172   2.218       .  S
N148        C152   1.356       .  A
N149        N150   1.321       .  A
N149       N1423   1.313   1_455  A
N149       Mn161   2.202       .  S
N150       C1431   1.354       .  A
C151       N1430   1.354       .  A
C151        C196   1.477       .  S
C152       N1426   1.355       .  A
C152        C238   1.497       .  S
N153        N154   1.317       .  A
N153        N799   1.316   1_545  A
N153       Mn183   2.197       .  S
N154        C162   1.353   1_545  A
N155        N156   1.317       .  A
N155        N797   1.313       .  A
N155       Mn161   2.192       .  S
N156        C803   1.353       .  A
N157        N158   1.321       .  A
N157        N795   1.313   1_545  A
N157       Mn183   2.195       .  S
N158        C163   1.355   1_545  A
N159        N160   1.324       .  A
N159        N793   1.316       .  A
N159       Mn161   2.220       .  S
N160        C802   1.358       .  A
Mn161     Cl2105   2.544   1_455  S
C162        N800   1.358       .  A
C162        C249   1.506       .  S
C163        N796   1.353       .  A
C163        C599   1.497       .  S
N164        N165   1.321       .  A
N164        N810   1.315       .  A
N164       Mn172   2.206       .  S
N165        C813   1.357       .  A
N166        N167   1.318       .  A
N166        N808   1.314   1_545  A
N166       Mn184   2.190       .  S
N167        C174   1.351       .  A
N168        N169   1.319       .  A
N168        N806   1.314       .  A
N168       Mn172   2.192       .  S
N169        C814   1.351       .  A
N170        N171   1.318       .  A
N170        N804   1.315   1_545  A
N170       Mn184   2.199       .  S
N171        C173   1.353       .  A
Mn172      Cl825   2.547       .  S
C173        N805   1.357   1_545  A
C173        C263   1.504       .  S
C174        N809   1.351   1_545  A
C174        C588   1.470       .  S
N175        N176   1.316       .  A
N175       N1461   1.311   1_455  A
N175       Mn183   2.184       .  S
N176       C1466   1.352       .  A
N177        N178   1.319       .  A
N177       N1459   1.317       .  A
N177       Mn184   2.204       .  S
N178        C187   1.354       .  A
N179        N180   1.323       .  A
N179       N1457   1.317   1_455  A
N179       Mn183   2.215       .  S
N180       C1467   1.356   1_455  A
N181        N182   1.319       .  A
N181       N1455   1.311       .  A
N181       Mn184   2.183       .  S
N182        C186   1.354       .  A
Mn183     Cl1465   2.544   1_445  S
Mn184      Cl185   2.544   1_545  S
Cl185     Mn2081   2.544       .  S
Cl185      Mn812   2.547       .  S
Cl185     Mn1463   2.544   1_565  S
C186       N1456   1.352       .  A
C186        C207   1.494       .  S
C187       N1460   1.356       .  A
C187        C221   1.497       .  S
C188        C235   1.528       .  S
C188        C322   1.518       .  S
C188        C189   1.392       .  D
C189        C224   1.517       .  S
C189        C305   1.532       .  S
C190        C266   1.506       .  S
C190        C294   1.539       .  S
C190        C191   1.396       .  D
C191        C252   1.523       .  S
C191        C277   1.523       .  S
C192        C193   1.606   1_455  S
C192        C210   1.599       .  S
C192        C336   1.601       .  S
C192       C1630   1.607   1_455  S
C193        C198   1.450       .  A
C193       C1474   1.444       .  A
C194        C195   1.421       .  A
C194       C1473   1.444       .  A
C194        C199   1.449       .  S
C195        C196   1.403       .  A
C195        C202   1.452       .  S
C196       C1477   1.395       .  A
C197        C198   1.406   1_455  A
C197       C1476   1.395   1_455  A
C197        C200   1.458       .  S
C198        C201   1.453       .  S
C199        N206   1.157       .  T
C200        N205   1.157       .  T
C201        N203   1.158       .  T
C202        N204   1.157       .  T
C207        C212   1.408       .  A
C207       C1488   1.408       .  A
C208        C209   1.412       .  A
C208       C1487   1.408       .  A
C208        C213   1.457       .  S
C209        C210   1.447       .  A
C209        C216   1.453       .  S
C210       C1491   1.444   1_455  A
C211        C212   1.417       .  A
C211       C1490   1.444       .  A
C211        C214   1.450       .  S
C212        C215   1.455       .  S
C213        N220   1.158       .  T
C214        N219   1.158       .  T
C215        N217   1.157       .  T
C216        N218   1.157       .  T
C221        C226   1.413       .  A
C221       C1502   1.416       .  A
C222        C223   1.417       .  A
C222       C1501   1.416   1_455  A
C222        C227   1.451       .  S
C223        C224   1.420   1_455  A
C223        C230   1.450       .  S
C224       C1505   1.420       .  A
C225        C226   1.409       .  A
C225       C1504   1.420       .  A
C225        C228   1.453       .  S
C226        C229   1.450       .  S
C227        N234   1.157       .  T
C228        N233   1.157       .  T
C229        N231   1.156       .  T
C230        N232   1.157       .  T
C235        C236   1.425   1_655  A
C235       C1520   1.424       .  A
C236        C237   1.410       .  A
C236        C241   1.451       .  S
C237       C1518   1.408   1_455  A
C237        C244   1.452       .  S
C238        C239   1.413       .  A
C238       C1517   1.408       .  A
C239        C240   1.419       .  A
C239        C242   1.451       .  S
C240       C1515   1.424       .  A
C240        C243   1.448       .  S
C241        N248   1.158       .  T
C242        N247   1.157       .  T
C243        N245   1.157       .  T
C244        N246   1.157       .  T
C249        C250   1.418   1_565  A
C249        C894   1.414       .  A
C250        C251   1.414       .  A
C250        C255   1.454       .  S
C251        C892   1.421       .  A
C251        C258   1.449       .  S
C252        C253   1.420       .  A
C252        C891   1.421       .  A
C253        C254   1.414       .  A
C253        C256   1.450       .  S
C254        C889   1.414       .  A
C254        C257   1.450       .  S
C255        N262   1.158       .  T
C256        N261   1.157       .  T
C257        N259   1.157       .  T
C258        N260   1.157       .  T
C263        C268   1.416       .  A
C263        C904   1.421   1_545  A
C264        C265   1.416       .  A
C264        C903   1.421       .  A
C264        C269   1.451       .  S
C265        C266   1.417       .  A
C265        C272   1.451       .  S
C266        C907   1.410       .  A
C267        C268   1.404       .  A
C267        C906   1.410       .  A
C267        C270   1.451       .  S
C268        C271   1.450       .  S
C269        N276   1.158       .  T
C270        N275   1.157       .  T
C271        N273   1.158       .  T
C272        N274   1.157       .  T
C277        C282   1.420       .  A
C277        C918   1.423       .  A
C278        C279   1.411       .  A
C278        C917   1.423       .  A
C278        C283   1.450       .  S
C279        C280   1.413       .  A
C279        C286   1.453       .  S
C280        C921   1.418   1_545  A
C281        C282   1.423       .  A
C281        C920   1.418       .  A
C281        C284   1.450       .  S
C282        C285   1.450       .  S
C283        N290   1.157       .  T
C284        N289   1.157       .  T
C285        N287   1.157       .  T
C286        N288   1.157       .  T
C291        C292   1.408       .  A
C291        C936   1.399   1_545  A
C292        C293   1.415       .  A
C292        C297   1.450       .  S
C293        C934   1.423       .  A
C293        C300   1.447       .  S
C294        C295   1.441       .  A
C294        C933   1.423       .  A
C295        C296   1.411       .  A
C295        C298   1.448       .  S
C296        C931   1.399       .  A
C296        C299   1.457       .  S
C297        N304   1.157       .  T
C298        N303   1.158       .  T
C299        N301   1.158       .  T
C300        N302   1.157       .  T
C305        C306   1.426       .  A
C305       C1590   1.429   1_655  A
C306        C307   1.418       .  A
C306        C311   1.447       .  S
C307       C1588   1.411       .  A
C307        C314   1.451       .  S
C308        C309   1.402       .  A
C308       C1587   1.411       .  A
C309        C310   1.408       .  A
C309        C312   1.452       .  S
C310       C1585   1.429       .  A
C310        C313   1.450       .  S
C311        N318   1.157       .  T
C312        N317   1.157       .  T
C313        N315   1.158       .  T
C314        N316   1.157       .  T
C319        C320   1.416       .  A
C319       C1604   1.418       .  A
C320        C321   1.409       .  A
C320        C325   1.452       .  S
C321       C1602   1.420       .  A
C321        C328   1.453       .  S
C322        C323   1.419   1_655  A
C322       C1601   1.420       .  A
C323        C324   1.419       .  A
C323        C326   1.450       .  S
C324       C1599   1.418   1_455  A
C324        C327   1.450       .  S
C325        N332   1.157       .  T
C326        N331   1.157       .  T
C327        N329   1.157       .  T
C328        N330   1.157       .  T
C333        C334   1.409       .  A
C333        C338   1.408       .  A
C334        C335   1.421       .  A
C334        C339   1.453       .  S
C335        C336   1.446       .  A
C335        C342   1.449       .  S
C336        C337   1.445       .  A
C337        C338   1.407       .  A
C337        C340   1.452       .  S
C338        C341   1.457       .  S
C339        N346   1.157       .  T
C340        N345   1.157       .  T
C341        N343   1.158       .  T
C342        N344   1.158       .  T
C347        C348   1.395       .  A
C347        C352   1.399       .  A
C348        C349   1.408       .  A
C348        C353   1.459       .  S
C349        C350   1.451       .  A
C349        C356   1.451       .  S
C350       C1472   1.607       .  S
C350        C351   1.446       .  A
C351        C352   1.420       .  A
C351        C354   1.448       .  S
C352        C355   1.453       .  S
C353        N360   1.158       .  T
C354        N359   1.157       .  T
C355        N357   1.157       .  T
C356        N358   1.158       .  T
C361        C362   1.418       .  A
C361        C366   1.417       .  A
C362        C363   1.419       .  A
C362        C367   1.452       .  S
C363        C364   1.421       .  A
C363        C370   1.449       .  S
C364        C365   1.420       .  A
C365        C366   1.412       .  A
C365        C368   1.451       .  S
C366        C369   1.452       .  S
C367        N374   1.158       .  T
C368        N373   1.157   1_554  T
C369        N371   1.158       .  T
C370        N372   1.157       .  T
C375        C376   1.415       .  A
C375        C380   1.417       .  A
C376        C377   1.409       .  A
C376        C381   1.451       .  S
C377        C378   1.418       .  A
C377        C384   1.452       .  S
C378        C379   1.419       .  A
C379        C380   1.416       .  A
C379        C382   1.450       .  S
C380        C383   1.452       .  S
C381        N388   1.158       .  T
C382        N387   1.157       .  T
C383        N385   1.158       .  T
C384        N386   1.157       .  T
C389        C390   1.418       .  A
C389        C394   1.414       .  A
C390        C391   1.421       .  A
C390        C395   1.450       .  S
C391        C392   1.420       .  A
C391        C398   1.450       .  S
C392        C393   1.420       .  A
C393        C394   1.408       .  A
C393        C396   1.451       .  S
C394        C397   1.452       .  S
C395        N402   1.157       .  T
C396        N401   1.157   1_556  T
C397        N399   1.158       .  T
C398        N400   1.157   1_545  T
C403        C404   1.428       .  A
C403        C408   1.425       .  A
C404        C405   1.410       .  A
C404        C409   1.449       .  S
C405        C406   1.404       .  A
C405        C412   1.452       .  S
C406        C407   1.412       .  A
C407        C408   1.418       .  A
C407        C410   1.451       .  S
C408        C411   1.447       .  S
C409        N416   1.158   1_556  T
C410        N415   1.157       .  T
C411        N413   1.157       .  T
C412        N414   1.157       .  T
C417        C422   1.408       .  A
C417       C1698   1.405       .  A
C418        C419   1.412       .  A
C418       C1697   1.405   1_455  A
C418        C423   1.456       .  S
C419       C1700   1.446   1_455  A
C419        C426   1.454       .  S
C420       C1285   1.601       .  S
C420        C421   1.451       .  A
C420       C1699   1.446       .  A
C421        C422   1.414       .  A
C421        C424   1.455       .  S
C422        C425   1.458       .  S
C423        N430   1.158       .  T
C424        N429   1.159       .  T
C425        N427   1.157       .  T
C426        N428   1.157       .  T
C431       C1285   1.605       .  S
C431        C432   1.454       .  A
C431       C1716   1.447       .  A
C432        C433   1.416       .  A
C432        C437   1.449       .  S
C433        C434   1.399       .  A
C433        C440   1.457       .  S
C434       C1715   1.401       .  A
C435        C436   1.408       .  A
C435       C1714   1.401   1_655  A
C435        C438   1.457       .  S
C436       C1711   1.447       .  A
C436        C439   1.452       .  S
C437        N444   1.158       .  T
C438        N443   1.158       .  T
C439        N441   1.157       .  T
C440        N442   1.157       .  T
C445        C446   1.448       .  A
C445        C450   1.450       .  A
C446        C447   1.408       .  A
C446        C451   1.453       .  S
C447        C448   1.400       .  A
C447        C454   1.456       .  S
C448        C449   1.401       .  A
C449        C450   1.412       .  A
C449        C452   1.456       .  S
C450        C453   1.452       .  S
C451       N1738   1.157   1_455  T
C452        N457   1.157       .  T
C453        N455   1.159       .  T
C454        N456   1.158       .  T
N458       C1731   1.157       .  T
C459       C1285   1.598       .  S
C459        C460   1.448       .  A
C459        C464   1.448       .  A
C460        C461   1.416       .  A
C460        C465   1.452       .  S
C461        C462   1.405       .  A
C461        C468   1.456       .  S
C462        C463   1.401       .  A
C463        C464   1.407       .  A
C463        C466   1.457       .  S
C464        C467   1.452       .  S
C465        N472   1.159       .  T
C466        N471   1.158       .  T
C467        N469   1.157       .  T
C468        N470   1.157       .  T
C473        C644   1.608       .  S
C473        C474   1.448   1_565  A
C473       C1118   1.451       .  A
C474        C475   1.422       .  A
C474        C479   1.448       .  S
C475        C476   1.401   1_545  A
C475        C482   1.452       .  S
C476       C1117   1.405       .  A
C477        C478   1.415       .  A
C477       C1116   1.405       .  A
C477        C480   1.457       .  S
C478       C1113   1.451       .  A
C478        C481   1.451       .  S
C479        N486   1.158       .  T
C480        N485   1.158       .  T
C481        N483   1.157       .  T
C482        N484   1.157       .  T
C487        C644   1.615   1_545  S
C487        C492   1.453       .  A
C487       C1128   1.444       .  A
C488        C489   1.424       .  A
C488       C1127   1.444       .  A
C488        C493   1.447       .  S
C489       C1130   1.403       .  A
C489        C496   1.453       .  S
C490        C491   1.396   1_545  A
C490       C1129   1.403       .  A
C491        C492   1.410   1_565  A
C491        C494   1.458       .  S
C492        C495   1.454       .  S
C493        N500   1.157       .  T
C494        N499   1.158       .  T
C495        N497   1.158       .  T
C496        N498   1.157       .  T
C501        C644   1.616   1_545  S
C501        C502   1.444       .  A
C501        C506   1.456       .  A
C502        C503   1.424       .  A
C502        C507   1.447       .  S
C503        C504   1.401       .  A
C503        C510   1.453       .  S
C504        C505   1.395       .  A
C505        C506   1.411       .  A
C505        C508   1.459       .  S
C506        C509   1.453   1_545  S
C507        N514   1.157       .  T
C508        N513   1.158       .  T
C509        N511   1.158       .  T
C510        N512   1.157       .  T
C515        C516   1.448       .  A
C515        C520   1.447       .  A
C516        C517   1.413       .  A
C516        C521   1.452       .  S
C517        C518   1.408       .  A
C517        C524   1.458       .  S
C518        C519   1.408       .  A
C519        C520   1.425       .  A
C519        C522   1.454       .  S
C520        C523   1.448       .  S
C521        N528   1.157       .  T
C522        N527   1.157       .  T
C523        N525   1.158       .  T
C524        N526   1.158       .  T
C529        C530   1.423       .  A
C529        C534   1.426       .  A
C530        C531   1.418       .  A
C530        C535   1.449       .  S
C531        C532   1.413       .  A
C531        C538   1.451       .  S
C532        C533   1.404       .  A
C533        C534   1.407       .  A
C533        C536   1.452       .  S
C534        C537   1.450       .  S
C535        N542   1.157   1_455  T
C536        N541   1.157       .  T
C537        N539   1.158   1_554  T
C538        N540   1.157       .  T
C543        C544   1.425       .  A
C543        C548   1.422       .  A
C544        C545   1.406       .  A
C544        C549   1.451       .  S
C545        C546   1.405       .  A
C545        C552   1.452       .  S
C546        C547   1.413       .  A
C547        C548   1.416       .  A
C547        C550   1.451       .  S
C548        C551   1.449       .  S
C549        N556   1.157   1_554  T
C550        N555   1.157       .  T
C551        N553   1.157       .  T
C552        N554   1.157       .  T
C557        C558   1.419       .  A
C557        C562   1.418       .  A
C558        C559   1.417       .  A
C558        C563   1.451       .  S
C559        C560   1.419       .  A
C559        C566   1.451       .  S
C560        C561   1.416       .  A
C561        C562   1.408       .  A
C561        C564   1.452       .  S
C562        C565   1.453       .  S
C563        N570   1.157   1_455  T
C564        N569   1.158       .  T
C565        N567   1.157   1_556  T
C566        N568   1.157       .  T
C571        C572   1.412       .  A
C571        C576   1.405       .  A
C572        C573   1.413       .  A
C572        C577   1.452       .  S
C573        C574   1.423       .  A
C573        C580   1.448       .  S
C574        C575   1.425       .  A
C575        C576   1.408       .  A
C575        C578   1.451       .  S
C576        C579   1.450       .  S
C577        N584   1.157       .  T
C578        N583   1.157   1_556  T
C579        N581   1.157       .  T
C580        N582   1.157       .  T
C585        C641   1.604       .  S
C585        C590   1.445       .  A
C585       C1226   1.451       .  A
C586        C587   1.404       .  A
C586       C1225   1.451       .  A
C586        C591   1.454       .  S
C587       C1228   1.395       .  A
C587        C594   1.459       .  S
C588        C589   1.398       .  A
C588       C1227   1.395       .  A
C589        C590   1.418       .  A
C589        C592   1.453       .  S
C590        C593   1.448       .  S
C591        N598   1.158       .  T
C592        N597   1.157       .  T
C593        N595   1.157       .  T
C594        N596   1.158       .  T
C599        C600   1.408   1_565  A
C599       C1244   1.406       .  A
C600        C601   1.421       .  A
C600        C605   1.455       .  S
C601        C602   1.445   1_545  A
C601        C608   1.449       .  S
C602        C641   1.602   1_565  S
C602       C1243   1.449       .  A
C603        C604   1.412       .  A
C603       C1242   1.449       .  A
C603        C606   1.452       .  S
C604       C1239   1.406       .  A
C604        C607   1.458       .  S
C605        N612   1.157       .  T
C606        N611   1.157       .  T
C607        N609   1.158       .  T
C608        N610   1.158       .  T
C613        C641   1.608       .  S
C613        C614   1.446       .  A
C613        C618   1.453       .  A
C614        C615   1.420       .  A
C614        C619   1.448       .  S
C615        C616   1.400       .  A
C615        C622   1.453       .  S
C616        C617   1.394       .  A
C617        C618   1.405       .  A
C617        C620   1.459       .  S
C618        C621   1.453   1_545  S
C619        N626   1.157       .  T
C620        N625   1.157       .  T
C621       N1263   1.158       .  T
C622        N624   1.157       .  T
N623       C1261   1.158       .  T
C627        C628   1.408       .  A
C627        C632   1.409       .  A
C628        C629   1.420       .  A
C628        C633   1.456       .  S
C629        C630   1.446       .  A
C629        C636   1.449       .  S
C630        C631   1.446       .  A
C631        C632   1.411       .  A
C631        C634   1.453       .  S
C632        C635   1.458       .  S
C633        N640   1.157       .  T
C634        N639   1.157       .  T
C635        N637   1.158       .  T
C636        N638   1.158       .  T
C641       C1270   1.600   1_545  S
C642       C1183   1.519       .  S
C642       C1214   1.523   1_554  S
C642       C1923   1.390       .  D
C643       C1169   1.523       .  S
C643       C1197   1.515   1_554  S
C643       C1922   1.390   1_455  D
C644       C1155   1.606       .  S
C645       C2340   1.601       .  S
C645       C2351   1.605       .  S
C645       C1085   1.600   1_655  S
C645       C2379   1.598       .  S
C646       C1018   1.515       .  S
C646       C1043   1.528   1_554  S
C647       C1004   1.523       .  S
C647       C1032   1.518   1_554  S
N648        N649   1.322       .  A
N648        N654   1.315       .  A
N648       Mn677   2.218       .  S
N649        C656   1.357       .  A
N650        N652   1.312       .  A
N650        N651   1.315       .  A
N650       Mn666   2.184       .  S
N651        C657   1.351       .  A
N652        N653   1.324       .  A
N652       Mn677   2.211       .  S
N653        C657   1.359       .  A
N654        N655   1.321       .  A
N654       Mn666   2.196       .  S
N655        C656   1.352       .  A
C656       C1046   1.493       .  S
C657       C1158   1.503       .  S
N658        N664   1.312       .  A
N658        N659   1.318       .  A
N658       Mn688   2.192       .  S
N659        C667   1.354       .  A
N660        N661   1.318       .  A
N660        N662   1.317       .  A
N660       Mn666   2.190       .  S
N661        C668   1.350       .  A
N662        N663   1.322       .  A
N662       Mn688   2.221       .  S
N663        C668   1.357       .  A
N664        N665   1.318       .  A
N664       Mn666   2.176       .  S
N665        C667   1.350       .  A
Mn666      Cl690   2.541       .  S
C667       C1102   1.484       .  S
C668       C1211   1.488       .  S
N669        N670   1.318       .  A
N669        N675   1.315       .  A
N669       Mn677   2.188       .  S
N670        C678   1.352       .  A
N671        N673   1.318       .  A
N671        N672   1.323       .  A
N671       Mn689   2.218       .  S
N672        C679   1.358       .  A
N673        N674   1.317       .  A
N673       Mn677   2.203       .  S
N674        C679   1.352       .  A
N675        N676   1.317       .  A
N675       Mn689   2.186       .  S
N676        C678   1.350       .  A
Mn677      Cl690   2.549       .  S
C678       C1088   1.479       .  S
C679       C1200   1.503       .  S
N680        N681   1.317       .  A
N680        N686   1.315       .  A
N680       Mn688   2.200       .  S
N681        C691   1.353       .  A
N682        N683   1.322       .  A
N682        N684   1.315       .  A
N682       Mn689   2.215       .  S
N683        C692   1.354       .  A
N684        N685   1.322       .  A
N684       Mn688   2.204       .  S
N685        C692   1.353       .  A
N686        N687   1.325       .  A
N686       Mn689   2.215       .  S
N687        C691   1.359       .  A
Mn688      Cl690   2.544       .  S
Mn689      Cl690   2.549       .  S
C691       C1029   1.506       .  S
C692       C1144   1.485       .  S
N693        N694   1.313       .  A
N693        N699   1.311       .  A
N693       Mn722   2.178       .  S
N694        C701   1.350       .  A
N695        N697   1.317       .  A
N695        N696   1.322       .  A
N695       Mn711   2.202       .  S
N696        C702   1.353       .  A
N697        N698   1.320       .  A
N697       Mn722   2.216       .  S
N698        C702   1.355       .  A
N699        N700   1.323       .  A
N699       Mn711   2.200       .  S
N700        C701   1.358       .  A
C701        C973   1.501       .  S
C702       C1172   1.491       .  S
N703        N709   1.316       .  A
N703        N704   1.319       .  A
N703       Mn733   2.198       .  S
N704        C712   1.353       .  A
N705        N706   1.314       .  A
N705        N707   1.312       .  A
N705       Mn711   2.180       .  S
N706        C713   1.350       .  A
N707        N708   1.321       .  A
N707       Mn733   2.198       .  S
N708        C713   1.356       .  A
N709        N710   1.322       .  A
N709       Mn711   2.215       .  S
N710        C712   1.357       .  A
Mn711      Cl735   2.549       .  S
C712       C1015   1.503       .  S
C713       C1267   1.496       .  S
N714        N715   1.319       .  A
N714        N720   1.315       .  A
N714       Mn722   2.197       .  S
N715        C723   1.353       .  A
N716        N718   1.314       .  A
N716        N717   1.318       .  A
N716       Mn734   2.190       .  S
N717        C724   1.351       .  A
N718        N719   1.320       .  A
N718       Mn722   2.199       .  S
N719        C724   1.352       .  A
N720        N721   1.324       .  A
N720       Mn734   2.224       .  S
N721        C723   1.359       .  A
Mn722      Cl735   2.538       .  S
C723       C1001   1.510       .  S
C724       C1256   1.474       .  S
N725        N726   1.319       .  A
N725        N731   1.314       .  A
N725       Mn733   2.189       .  S
N726        C736   1.350       .  A
N727        N728   1.321       .  A
N727        N729   1.317       .  A
N727       Mn734   2.200       .  S
N728        C737   1.353       .  A
N729        N730   1.320       .  A
N729       Mn733   2.215       .  S
N730        C737   1.354       .  A
N731        N732   1.321       .  A
N731       Mn734   2.204       .  S
N732        C736   1.353       .  A
Mn733      Cl735   2.543       .  S
Mn734      Cl735   2.550       .  S
C736        C987   1.477       .  S
C737       C1186   1.488       .  S
N738        N739   1.320       .  A
N738       Mn767   2.203       .  S
N739        C746   1.352       .  A
N740        N741   1.326       .  A
N740       Mn756   2.220       .  S
N742        N743   1.319       .  A
N742       Mn767   2.211       .  S
N743        C747   1.354       .  A
N744        N745   1.323       .  A
N744       Mn756   2.220       .  S
C746       C1130   1.485       .  S
C747        C920   1.508       .  S
N748       N2034   1.319       .  A
N748        N749   1.317       .  A
N748       Mn778   2.201       .  S
N749        C757   1.352       .  A
N750        N751   1.322       .  A
N750       N2032   1.314   1_455  A
N750       Mn756   2.201       .  S
N751       C2038   1.355       .  A
N752       N2030   1.314       .  A
N752        N753   1.315       .  A
N752       Mn778   2.177       .  S
N753        C758   1.348       .  A
N754       N2028   1.319   1_455  A
N754        N755   1.325       .  A
N754       Mn756   2.231       .  S
N755       C2037   1.359   1_455  A
Mn756     Cl1420   2.564   1_565  S
C757       N2035   1.359       .  A
C757        C959   1.503       .  S
C758       N2031   1.355       .  A
C758       C1074   1.483       .  S
N759        N760   1.321       .  A
N759       N2045   1.319   1_455  A
N759       Mn767   2.224       .  S
N760       C2048   1.356   1_455  A
N761       N2043   1.311       .  A
N761        N762   1.312       .  A
N761       Mn779   2.160       .  S
N762        C769   1.348       .  A
N763       N2041   1.311   1_455  A
N763        N764   1.320       .  A
N763       Mn767   2.196       .  S
N764       C2049   1.356   1_455  A
N765       N2039   1.319       .  A
N765        N766   1.322       .  A
N765       Mn779   2.209       .  S
N766        C768   1.353       .  A
Mn767     Cl2060   2.534       .  S
C768       N2040   1.356       .  A
C768        C948   1.490       .  S
C769       N2044   1.356       .  A
C769       C1057   1.493       .  S
N770        N771   1.317       .  A
N770       Mn778   2.192       .  S
N772        N773   1.318       .  A
N772       Mn779   2.177       .  S
N773        C782   1.348       .  A
N774        N775   1.322       .  A
N774       Mn778   2.217       .  S
N776        N777   1.325       .  A
N776       Mn779   2.217       .  S
N777        C781   1.360       .  A
Mn779      Cl780   2.563       .  S
Cl780     Mn1396   2.564       .  S
Cl780     Mn2047   2.534       .  S
C781       C1116   1.500       .  S
C782        C931   1.483       .  S
N783        N784   1.319       .  A
N783       N2069   1.313       .  A
N783       Mn812   2.187       .  S
N784        C791   1.350       .  A
N785       N2067   1.318   1_455  A
N785        N786   1.320       .  A
N785       Mn801   2.213       .  S
N786       C2072   1.355   1_455  A
N787       N2065   1.318       .  A
N787        N788   1.323       .  A
N787       Mn812   2.218       .  S
N788        C792   1.356       .  A
N789       N2063   1.313   1_455  A
N789        N790   1.321       .  A
N789       Mn801   2.202       .  S
N790       C2071   1.354       .  A
C791       N2070   1.354       .  A
C791        C836   1.477       .  S
C792       N2066   1.355       .  A
C792        C878   1.497       .  S
N793        N794   1.317       .  A
N793       Mn823   2.197       .  S
N794        C802   1.353       .  A
N795        N796   1.317       .  A
N795       Mn801   2.192       .  S
N797        N798   1.321       .  A
N797       Mn823   2.195       .  S
N798        C803   1.355       .  A
N799        N800   1.324       .  A
N799       Mn801   2.220       .  S
Mn801     Cl1465   2.544   1_455  S
C802        C889   1.506       .  S
C803       C1239   1.497       .  S
N804        N805   1.321       .  A
N804       Mn812   2.206       .  S
N806        N807   1.318       .  A
N806       Mn824   2.190       .  S
N807        C814   1.351       .  A
N808        N809   1.319       .  A
N808       Mn812   2.192       .  S
N810        N811   1.318       .  A
N810       Mn824   2.199       .  S
N811        C813   1.353       .  A
C813        C903   1.504       .  S
C814       C1228   1.470       .  S
N815        N816   1.316       .  A
N815       N2101   1.311   1_455  A
N815       Mn823   2.184       .  S
N816       C2106   1.352       .  A
N817        N818   1.319       .  A
N817       N2099   1.317       .  A
N817       Mn824   2.204       .  S
N818        C827   1.354       .  A
N819       N2097   1.317   1_455  A
N819        N820   1.323       .  A
N819       Mn823   2.215       .  S
N820       C2107   1.356   1_455  A
N821       N2095   1.311       .  A
N821        N822   1.319       .  A
N821       Mn824   2.183       .  S
N822        C826   1.354       .  A
Mn823     Cl2105   2.544   1_455  S
Mn824      Cl825   2.544       .  S
Cl825     Mn1441   2.544       .  S
Cl825     Mn2103   2.544       .  S
C826       N2096   1.352       .  A
C826        C847   1.494       .  S
C827       N2100   1.356       .  A
C827        C861   1.497       .  S
C828        C875   1.528       .  S
C828        C962   1.518       .  S
C828        C829   1.392       .  D
C829        C864   1.517       .  S
C829        C945   1.532       .  S
C830        C906   1.506       .  S
C830        C934   1.539       .  S
C830        C831   1.396       .  D
C831        C892   1.523       .  S
C831        C917   1.523       .  S
C832        C833   1.606   1_455  S
C832        C850   1.599       .  S
C832        C976   1.601       .  S
C832       C2270   1.607   1_455  S
C833       C2114   1.444       .  A
C833        C838   1.450       .  A
C834       C2113   1.444       .  A
C834        C835   1.421       .  A
C834        C839   1.449       .  S
C835        C836   1.403       .  A
C835        C842   1.452       .  S
C836       C2117   1.395       .  A
C837       C2116   1.395   1_455  A
C837        C838   1.406   1_455  A
C837        C840   1.458       .  S
C838        C841   1.453       .  S
C839        N846   1.157       .  T
C840        N845   1.157       .  T
C841        N843   1.158       .  T
C842        N844   1.157       .  T
C847       C2128   1.408       .  A
C847        C852   1.408       .  A
C848       C2127   1.408       .  A
C848        C849   1.412       .  A
C848        C853   1.457       .  S
C849        C850   1.447       .  A
C849        C856   1.453       .  S
C850       C2131   1.444   1_455  A
C851       C2130   1.444       .  A
C851        C852   1.417       .  A
C851        C854   1.450       .  S
C852        C855   1.455       .  S
C853        N860   1.158       .  T
C854        N859   1.158       .  T
C855        N857   1.157       .  T
C856        N858   1.157       .  T
C861       C2142   1.416       .  A
C861        C866   1.413       .  A
C862       C2141   1.416   1_455  A
C862        C863   1.417       .  A
C862        C867   1.451       .  S
C863        C864   1.420   1_455  A
C863        C870   1.450       .  S
C864       C2145   1.420       .  A
C865       C2144   1.420       .  A
C865        C866   1.409       .  A
C865        C868   1.453       .  S
C866        C869   1.450       .  S
C867        N874   1.157       .  T
C868        N873   1.157       .  T
C869        N871   1.156       .  T
C870        N872   1.157       .  T
C875        C876   1.425   1_655  A
C875       C2160   1.424       .  A
C876        C877   1.410       .  A
C876        C881   1.451       .  S
C877       C2158   1.408   1_455  A
C877        C884   1.452       .  S
C878       C2157   1.408       .  A
C878        C879   1.413       .  A
C879        C880   1.419       .  A
C879        C882   1.451       .  S
C880       C2155   1.424       .  A
C880        C883   1.448       .  S
C881        N888   1.158       .  T
C882        N887   1.157       .  T
C883        N885   1.157       .  T
C884        N886   1.157       .  T
C889        C890   1.418       .  A
C890        C891   1.414       .  A
C890        C895   1.454       .  S
C891        C898   1.449       .  S
C892        C893   1.420   1_545  A
C893        C894   1.414       .  A
C893        C896   1.450       .  S
C894        C897   1.450       .  S
C895        N902   1.158       .  T
C896        N901   1.157       .  T
C897        N899   1.157       .  T
C898        N900   1.157       .  T
C903        C908   1.416       .  A
C904        C905   1.416       .  A
C904        C909   1.451       .  S
C905        C906   1.417   1_565  A
C905        C912   1.451       .  S
C907        C908   1.404       .  A
C907        C910   1.451       .  S
C908        C911   1.450       .  S
C909        N916   1.158       .  T
C910        N915   1.157       .  T
C911        N913   1.158       .  T
C912        N914   1.157       .  T
C917        C922   1.420   1_545  A
C918        C919   1.411       .  A
C918        C923   1.450       .  S
C919        C920   1.413       .  A
C919        C926   1.453       .  S
C921        C922   1.423       .  A
C921        C924   1.450       .  S
C922        C925   1.450       .  S
C923        N930   1.157       .  T
C924        N929   1.157       .  T
C925        N927   1.157       .  T
C926        N928   1.157       .  T
C931        C932   1.408       .  A
C932        C933   1.415       .  A
C932        C937   1.450       .  S
C933        C940   1.447       .  S
C934        C935   1.441   1_545  A
C935        C936   1.411       .  A
C935        C938   1.448       .  S
C936        C939   1.457       .  S
C937        N944   1.157       .  T
C938        N943   1.158       .  T
C939        N941   1.158       .  T
C940        N942   1.157       .  T
C945        C946   1.426       .  A
C945       C2230   1.429   1_655  A
C946        C947   1.418       .  A
C946        C951   1.447       .  S
C947       C2228   1.411       .  A
C947        C954   1.451       .  S
C948       C2227   1.411       .  A
C948        C949   1.402       .  A
C949        C950   1.408       .  A
C949        C952   1.452       .  S
C950       C2225   1.429       .  A
C950        C953   1.450       .  S
C951        N958   1.157       .  T
C952        N957   1.157       .  T
C953        N955   1.158       .  T
C954        N956   1.157       .  T
C959        C960   1.416       .  A
C959       C2244   1.418       .  A
C960        C961   1.409       .  A
C960        C965   1.452       .  S
C961       C2242   1.420       .  A
C961        C968   1.453       .  S
C962       C2241   1.420       .  A
C962        C963   1.419   1_655  A
C963        C964   1.419       .  A
C963        C966   1.450       .  S
C964       C2239   1.418   1_455  A
C964        C967   1.450       .  S
C965        N972   1.157       .  T
C966        N971   1.157       .  T
C967        N969   1.157       .  T
C968        N970   1.157       .  T
C973        C974   1.409       .  A
C973        C978   1.408       .  A
C974        C975   1.421       .  A
C974        C979   1.453       .  S
C975        C976   1.446       .  A
C975        C982   1.449       .  S
C976        C977   1.445       .  A
C977        C978   1.407       .  A
C977        C980   1.452       .  S
C978        C981   1.457       .  S
C979        N986   1.157       .  T
C980        N985   1.157       .  T
C981        N983   1.158       .  T
C982        N984   1.158       .  T
C987        C988   1.395       .  A
C987        C992   1.399       .  A
C988        C989   1.408       .  A
C988        C993   1.459       .  S
C989        C990   1.451       .  A
C989        C996   1.451       .  S
C990       C2112   1.607       .  S
C990        C991   1.446       .  A
C991        C992   1.420       .  A
C991        C994   1.448       .  S
C992        C995   1.453       .  S
C993       N1000   1.158       .  T
C994        N999   1.157       .  T
C995        N997   1.157       .  T
C996        N998   1.158       .  T
C1001      C1002   1.418       .  A
C1001      C1006   1.417       .  A
C1002      C1003   1.419       .  A
C1002      C1007   1.452       .  S
C1003      C1004   1.421       .  A
C1003      C1010   1.449       .  S
C1004      C1005   1.420       .  A
C1005      C1006   1.412       .  A
C1005      C1008   1.451       .  S
C1006      C1009   1.452       .  S
C1007      N1014   1.158       .  T
C1008      N1013   1.157   1_554  T
C1009      N1011   1.158       .  T
C1010      N1012   1.157       .  T
C1015      C1016   1.415       .  A
C1015      C1020   1.417       .  A
C1016      C1017   1.409       .  A
C1016      C1021   1.451       .  S
C1017      C1018   1.418       .  A
C1017      C1024   1.452       .  S
C1018      C1019   1.419       .  A
C1019      C1020   1.416       .  A
C1019      C1022   1.450       .  S
C1020      C1023   1.452       .  S
C1021      N1028   1.158       .  T
C1022      N1027   1.157       .  T
C1023      N1025   1.158       .  T
C1024      N1026   1.157       .  T
C1029      C1030   1.418       .  A
C1029      C1034   1.414       .  A
C1030      C1031   1.421       .  A
C1030      C1035   1.450       .  S
C1031      C1032   1.420       .  A
C1031      C1038   1.450       .  S
C1032      C1033   1.420       .  A
C1033      C1034   1.408       .  A
C1033      C1036   1.451       .  S
C1034      C1037   1.452       .  S
C1035      N1042   1.157       .  T
C1036      N1041   1.157   1_556  T
C1037      N1039   1.158       .  T
C1038      N1040   1.157       .  T
C1043      C1044   1.428       .  A
C1043      C1048   1.425       .  A
C1044      C1045   1.410       .  A
C1044      C1049   1.449       .  S
C1045      C1046   1.404       .  A
C1045      C1052   1.452       .  S
C1046      C1047   1.412       .  A
C1047      C1048   1.418       .  A
C1047      C1050   1.451       .  S
C1048      C1051   1.447       .  S
C1049      N1056   1.158   1_556  T
C1050      N1055   1.157       .  T
C1051      N1053   1.157       .  T
C1052      N1054   1.157       .  T
C1057      C2338   1.405       .  A
C1057      C1062   1.408       .  A
C1058      C2337   1.405   1_455  A
C1058      C1059   1.412       .  A
C1058      C1063   1.456       .  S
C1059      C2340   1.446   1_455  A
C1059      C1066   1.454       .  S
C1060      C1925   1.601       .  S
C1060      C2339   1.446       .  A
C1060      C1061   1.451       .  A
C1061      C1062   1.414       .  A
C1061      C1064   1.455       .  S
C1062      C1065   1.458       .  S
C1063      N1070   1.158       .  T
C1064      N1069   1.159       .  T
C1065      N1067   1.157       .  T
C1066      N1068   1.157       .  T
C1071      C1925   1.605       .  S
C1071      C1072   1.454       .  A
C1071      C2356   1.447       .  A
C1072      C1073   1.416       .  A
C1072      C1077   1.449       .  S
C1073      C1074   1.399       .  A
C1073      C1080   1.457       .  S
C1074      C2355   1.401       .  A
C1075      C2354   1.401   1_655  A
C1075      C1076   1.408       .  A
C1075      C1078   1.457       .  S
C1076      C2351   1.447       .  A
C1076      C1079   1.452       .  S
C1077      N1084   1.158       .  T
C1078      N1083   1.158       .  T
C1079      N1081   1.157       .  T
C1080      N1082   1.157       .  T
C1085      C1086   1.448       .  A
C1085      C1090   1.450       .  A
C1086      C1087   1.408       .  A
C1086      C1091   1.453       .  S
C1087      C1088   1.400       .  A
C1087      C1094   1.456       .  S
C1088      C1089   1.401       .  A
C1089      C1090   1.412       .  A
C1089      C1092   1.456       .  S
C1090      C1093   1.452       .  S
C1091      N2378   1.157   1_455  T
C1092      N1097   1.157       .  T
C1093      N1095   1.159       .  T
C1094      N1096   1.158       .  T
N1098      C2371   1.157       .  T
C1099      C1925   1.598       .  S
C1099      C1100   1.448       .  A
C1099      C1104   1.448       .  A
C1100      C1101   1.416       .  A
C1100      C1105   1.452       .  S
C1101      C1102   1.405       .  A
C1101      C1108   1.456       .  S
C1102      C1103   1.401       .  A
C1103      C1104   1.407       .  A
C1103      C1106   1.457       .  S
C1104      C1107   1.452       .  S
C1105      N1112   1.159       .  T
C1106      N1111   1.158       .  T
C1107      N1109   1.157       .  T
C1108      N1110   1.157       .  T
C1113      C1114   1.448       .  A
C1114      C1115   1.422       .  A
C1114      C1119   1.448       .  S
C1115      C1116   1.401       .  A
C1115      C1122   1.452       .  S
C1117      C1118   1.415       .  A
C1117      C1120   1.457       .  S
C1118      C1121   1.451       .  S
C1119      N1126   1.158       .  T
C1120      N1125   1.158       .  T
C1121      N1123   1.157       .  T
C1122      N1124   1.157       .  T
C1127      C1132   1.453       .  A
C1128      C1129   1.424       .  A
C1128      C1133   1.447       .  S
C1129      C1136   1.453       .  S
C1130      C1131   1.396       .  A
C1131      C1132   1.410       .  A
C1131      C1134   1.458       .  S
C1132      C1135   1.454       .  S
C1133      N1140   1.157       .  T
C1134      N1139   1.158       .  T
C1135      N1137   1.158       .  T
C1136      N1138   1.157       .  T
C1141      C1142   1.444       .  A
C1141      C1146   1.456       .  A
C1142      C1143   1.424       .  A
C1142      C1147   1.447       .  S
C1143      C1144   1.401       .  A
C1143      C1150   1.453       .  S
C1144      C1145   1.395       .  A
C1145      C1146   1.411       .  A
C1145      C1148   1.459       .  S
C1146      C1149   1.453       .  S
C1147      N1154   1.157       .  T
C1148      N1153   1.158       .  T
C1149      N1151   1.158       .  T
C1150      N1152   1.157       .  T
C1155      C1156   1.448       .  A
C1155      C1160   1.447       .  A
C1156      C1157   1.413       .  A
C1156      C1161   1.452       .  S
C1157      C1158   1.408       .  A
C1157      C1164   1.458       .  S
C1158      C1159   1.408       .  A
C1159      C1160   1.425       .  A
C1159      C1162   1.454       .  S
C1160      C1163   1.448       .  S
C1161      N1168   1.157       .  T
C1162      N1167   1.157       .  T
C1163      N1165   1.158       .  T
C1164      N1166   1.158       .  T
C1169      C1170   1.423       .  A
C1169      C1174   1.426       .  A
C1170      C1171   1.418       .  A
C1170      C1175   1.449       .  S
C1171      C1172   1.413       .  A
C1171      C1178   1.451       .  S
C1172      C1173   1.404       .  A
C1173      C1174   1.407       .  A
C1173      C1176   1.452       .  S
C1174      C1177   1.450       .  S
C1175      N1182   1.157   1_455  T
C1176      N1181   1.157       .  T
C1177      N1179   1.158   1_554  T
C1178      N1180   1.157       .  T
C1183      C1184   1.425       .  A
C1183      C1188   1.422       .  A
C1184      C1185   1.406       .  A
C1184      C1189   1.451       .  S
C1185      C1186   1.405       .  A
C1185      C1192   1.452       .  S
C1186      C1187   1.413       .  A
C1187      C1188   1.416       .  A
C1187      C1190   1.451       .  S
C1188      C1191   1.449       .  S
C1189      N1196   1.157   1_554  T
C1190      N1195   1.157       .  T
C1191      N1193   1.157       .  T
C1192      N1194   1.157       .  T
C1197      C1198   1.419       .  A
C1197      C1202   1.418       .  A
C1198      C1199   1.417       .  A
C1198      C1203   1.451       .  S
C1199      C1200   1.419       .  A
C1199      C1206   1.451       .  S
C1200      C1201   1.416       .  A
C1201      C1202   1.408       .  A
C1201      C1204   1.452       .  S
C1202      C1205   1.453       .  S
C1203      N1210   1.157   1_455  T
C1204      N1209   1.158       .  T
C1205      N1207   1.157   1_556  T
C1206      N1208   1.157       .  T
C1211      C1212   1.412       .  A
C1211      C1216   1.405       .  A
C1212      C1213   1.413       .  A
C1212      C1217   1.452       .  S
C1213      C1214   1.423       .  A
C1213      C1220   1.448       .  S
C1214      C1215   1.425       .  A
C1215      C1216   1.408       .  A
C1215      C1218   1.451       .  S
C1216      C1219   1.450       .  S
C1217      N1224   1.157       .  T
C1218      N1223   1.157   1_556  T
C1219      N1221   1.157       .  T
C1220      N1222   1.157       .  T
C1225      C1230   1.445       .  A
C1226      C1227   1.404       .  A
C1226      C1231   1.454       .  S
C1227      C1234   1.459   1_545  S
C1228      C1229   1.398       .  A
C1229      C1230   1.418       .  A
C1229      C1232   1.453       .  S
C1230      C1233   1.448       .  S
C1231      N1238   1.158       .  T
C1232      N1237   1.157       .  T
C1233      N1235   1.157       .  T
C1234      N1236   1.158       .  T
C1239      C1240   1.408       .  A
C1240      C1241   1.421       .  A
C1240      C1245   1.455       .  S
C1241      C1242   1.445       .  A
C1241      C1248   1.449       .  S
C1243      C1244   1.412       .  A
C1243      C1246   1.452       .  S
C1244      C1247   1.458       .  S
C1245      N1252   1.157       .  T
C1246      N1251   1.157       .  T
C1247      N1249   1.158       .  T
C1248      N1250   1.158       .  T
C1253      C1254   1.446       .  A
C1253      C1258   1.453       .  A
C1254      C1255   1.420       .  A
C1254      C1259   1.448       .  S
C1255      C1256   1.400       .  A
C1255      C1262   1.453       .  S
C1256      C1257   1.394       .  A
C1257      C1258   1.405       .  A
C1257      C1260   1.459       .  S
C1258      C1261   1.453       .  S
C1259      N1266   1.157       .  T
C1260      N1265   1.157       .  T
C1262      N1264   1.157       .  T
C1267      C1268   1.408       .  A
C1267      C1272   1.409       .  A
C1268      C1269   1.420       .  A
C1268      C1273   1.456       .  S
C1269      C1270   1.446       .  A
C1269      C1276   1.449       .  S
C1270      C1271   1.446       .  A
C1271      C1272   1.411       .  A
C1271      C1274   1.453       .  S
C1272      C1275   1.458       .  S
C1273      N1280   1.157       .  T
C1274      N1279   1.157       .  T
C1275      N1277   1.158       .  T
C1276      N1278   1.158       .  T
C1281      C2505   1.604       .  S
C1281      C2522   1.602       .  S
C1281      C2533   1.608       .  S
C1281      C1910   1.600       .  S
C1282      C1823   1.519       .  S
C1282      C1854   1.523   1_554  S
C1283      C1809   1.523       .  S
C1283      C1837   1.515   1_554  S
C1284      C2393   1.608       .  S
C1284      C2407   1.615       .  S
C1284      C2421   1.616       .  S
C1284      C1795   1.606       .  S
C1285      C1725   1.600       .  S
C1286      C1658   1.515       .  S
C1286      C1683   1.528   1_554  S
C1286      C1927   1.391       .  D
C1287      C1644   1.523       .  S
C1287      C1672   1.518   1_554  S
C1287      C1926   1.391   1_545  D
N1288      N1289   1.322       .  A
N1288      N1294   1.315       .  A
N1288     Mn1317   2.218       .  S
N1289      C1296   1.357       .  A
N1290      N1292   1.312       .  A
N1290      N1291   1.315       .  A
N1290     Mn1306   2.184       .  S
N1291      C1297   1.351       .  A
N1292      N1293   1.324       .  A
N1292     Mn1317   2.211       .  S
N1293      C1297   1.359       .  A
N1294      N1295   1.321       .  A
N1294     Mn1306   2.196       .  S
N1295      C1296   1.352       .  A
C1296      C1686   1.493       .  S
C1297      C1798   1.503       .  S
N1298      N1304   1.312       .  A
N1298      N1299   1.318       .  A
N1298     Mn1328   2.192       .  S
N1299      C1307   1.354       .  A
N1300      N1301   1.318       .  A
N1300      N1302   1.317       .  A
N1300     Mn1306   2.190       .  S
N1301      C1308   1.350       .  A
N1302      N1303   1.322       .  A
N1302     Mn1328   2.221       .  S
N1303      C1308   1.357       .  A
N1304      N1305   1.318       .  A
N1304     Mn1306   2.176       .  S
N1305      C1307   1.350       .  A
Mn1306    Cl1330   2.541       .  S
C1307      C1742   1.484       .  S
C1308      C1851   1.488       .  S
N1309      N1310   1.318       .  A
N1309      N1315   1.315       .  A
N1309     Mn1317   2.188       .  S
N1310      C1318   1.352       .  A
N1311      N1313   1.318       .  A
N1311      N1312   1.323       .  A
N1311     Mn1329   2.218       .  S
N1312      C1319   1.358       .  A
N1313      N1314   1.317       .  A
N1313     Mn1317   2.203       .  S
N1314      C1319   1.352       .  A
N1315      N1316   1.317       .  A
N1315     Mn1329   2.186       .  S
N1316      C1318   1.350       .  A
Mn1317    Cl1330   2.549       .  S
C1318      C1728   1.479       .  S
C1319      C1840   1.503       .  S
N1320      N1321   1.317       .  A
N1320      N1326   1.315       .  A
N1320     Mn1328   2.200       .  S
N1321      C1331   1.353       .  A
N1322      N1323   1.322       .  A
N1322      N1324   1.315       .  A
N1322     Mn1329   2.215       .  S
N1323      C1332   1.354       .  A
N1324      N1325   1.322       .  A
N1324     Mn1328   2.204       .  S
N1325      C1332   1.353       .  A
N1326      N1327   1.325       .  A
N1326     Mn1329   2.215       .  S
N1327      C1331   1.359       .  A
Mn1328    Cl1330   2.544       .  S
Mn1329    Cl1330   2.549       .  S
C1331      C1669   1.506       .  S
C1332      C1784   1.485       .  S
N1333      N1334   1.313       .  A
N1333      N1339   1.311       .  A
N1333     Mn1362   2.178       .  S
N1334      C1341   1.350       .  A
N1335      N1337   1.317       .  A
N1335      N1336   1.322       .  A
N1335     Mn1351   2.202       .  S
N1336      C1342   1.353       .  A
N1337      N1338   1.320       .  A
N1337     Mn1362   2.216       .  S
N1338      C1342   1.355       .  A
N1339      N1340   1.323       .  A
N1339     Mn1351   2.200       .  S
N1340      C1341   1.358       .  A
C1341      C1613   1.501       .  S
C1342      C1812   1.491       .  S
N1343      N1349   1.316       .  A
N1343      N1344   1.319       .  A
N1343     Mn1373   2.198       .  S
N1344      C1352   1.353       .  A
N1345      N1346   1.314       .  A
N1345      N1347   1.312       .  A
N1345     Mn1351   2.180       .  S
N1346      C1353   1.350       .  A
N1347      N1348   1.321       .  A
N1347     Mn1373   2.198       .  S
N1348      C1353   1.356       .  A
N1349      N1350   1.322       .  A
N1349     Mn1351   2.215       .  S
N1350      C1352   1.357       .  A
Mn1351    Cl1375   2.549       .  S
C1352      C1655   1.503       .  S
C1353      C1907   1.496       .  S
N1354      N1355   1.319       .  A
N1354      N1360   1.315       .  A
N1354     Mn1362   2.197       .  S
N1355      C1363   1.353       .  A
N1356      N1358   1.314       .  A
N1356      N1357   1.318       .  A
N1356     Mn1374   2.190       .  S
N1357      C1364   1.351       .  A
N1358      N1359   1.320       .  A
N1358     Mn1362   2.199       .  S
N1359      C1364   1.352       .  A
N1360      N1361   1.324       .  A
N1360     Mn1374   2.224       .  S
N1361      C1363   1.359       .  A
Mn1362    Cl1375   2.538       .  S
C1363      C1641   1.510       .  S
C1364      C1896   1.474       .  S
N1365      N1366   1.319       .  A
N1365      N1371   1.314       .  A
N1365     Mn1373   2.189       .  S
N1366      C1376   1.350       .  A
N1367      N1368   1.321       .  A
N1367      N1369   1.317       .  A
N1367     Mn1374   2.200       .  S
N1368      C1377   1.353       .  A
N1369      N1370   1.320       .  A
N1369     Mn1373   2.215       .  S
N1370      C1377   1.354       .  A
N1371      N1372   1.321       .  A
N1371     Mn1374   2.204       .  S
N1372      C1376   1.353       .  A
Mn1373    Cl1375   2.543       .  S
Mn1374    Cl1375   2.550       .  S
C1376      C1627   1.477       .  S
C1377      C1826   1.488       .  S
N1378      N1379   1.320       .  A
N1378      N2024   1.317   1_545  A
N1378     Mn1407   2.203       .  S
N1379      C1386   1.352   1_545  A
N1380      N2022   1.316       .  A
N1380      N1381   1.326       .  A
N1380     Mn1396   2.220       .  S
N1381      C2027   1.358       .  A
N1382      N2020   1.316   1_545  A
N1382      N1383   1.319       .  A
N1382     Mn1407   2.211       .  S
N1383      C1387   1.354       .  A
N1384      N2018   1.317       .  A
N1384      N1385   1.323       .  A
N1384     Mn1396   2.220       .  S
N1385      C2026   1.355       .  A
C1386      N2025   1.355       .  A
C1386      C1770   1.485   1_565  S
C1387      N2021   1.358   1_545  A
C1387      C1560   1.508       .  S
N1388      N1389   1.317       .  A
N1388     Mn1418   2.201       .  S
N1389      C1397   1.352       .  A
N1390      N1391   1.322       .  A
N1390     Mn1396   2.201       .  S
N1392      N1393   1.315       .  A
N1392     Mn1418   2.177       .  S
N1393      C1398   1.348   1_655  A
N1394      N1395   1.325       .  A
N1394     Mn1396   2.231       .  S
C1397      C1599   1.503       .  S
C1398      C1714   1.483       .  S
N1399      N1400   1.321       .  A
N1399     Mn1407   2.224       .  S
N1401      N1402   1.312       .  A
N1401     Mn1419   2.159       .  S
N1402      C1409   1.348       .  A
N1403      N1404   1.320       .  A
N1403     Mn1407   2.196       .  S
N1405      N1406   1.322       .  A
N1405     Mn1419   2.209       .  S
N1406      C1408   1.353       .  A
C1408      C1588   1.490       .  S
C1409      C1697   1.493       .  S
N1410      N1411   1.317       .  A
N1410      N2056   1.313       .  A
N1410     Mn1418   2.192       .  S
N1411      C2061   1.351       .  A
N1412      N1413   1.318       .  A
N1412      N2054   1.314   1_545  A
N1412     Mn1419   2.177       .  S
N1413      C1422   1.348       .  A
N1414      N2052   1.314       .  A
N1414      N1415   1.322       .  A
N1414     Mn1418   2.217       .  S
N1415      C2062   1.358       .  A
N1416      N2050   1.313   1_545  A
N1416      N1417   1.325       .  A
N1416     Mn1419   2.217       .  S
N1417      C1421   1.360   1_545  A
Mn1418    Cl2060   2.532   1_655  S
Mn1419    Cl1420   2.563   1_655  S
Cl1420    Mn2058   2.532   1_445  S
C1421      N2051   1.351       .  A
C1421      C1756   1.500       .  S
C1422      N2055   1.358   1_545  A
C1422      C1571   1.483       .  S
N1423      N1424   1.319       .  A
N1423     Mn1452   2.187       .  S
N1424      C1431   1.350   1_655  A
N1425      N1426   1.320       .  A
N1425     Mn1441   2.213       .  S
N1427      N1428   1.323       .  A
N1427     Mn1452   2.218       .  S
N1428      C1432   1.356       .  A
N1429      N1430   1.321       .  A
N1429     Mn1441   2.202       .  S
C1431      C1476   1.477   1_455  S
C1432      C1518   1.497       .  S
N1433      N2079   1.316   1_545  A
N1433      N1434   1.317       .  A
N1433     Mn1463   2.197       .  S
N1434      C1442   1.353   1_545  A
N1435      N1436   1.317       .  A
N1435      N2077   1.313       .  A
N1435     Mn1441   2.192       .  S
N1436      C2083   1.353       .  A
N1437      N2075   1.313   1_545  A
N1437      N1438   1.321       .  A
N1437     Mn1463   2.195       .  S
N1438      C1443   1.355   1_545  A
N1439      N2073   1.316       .  A
N1439      N1440   1.324       .  A
N1439     Mn1441   2.220       .  S
N1440      C2082   1.358       .  A
C1442      N2080   1.358       .  A
C1442      C1529   1.506       .  S
C1443      N2076   1.353       .  A
C1443      C1879   1.497       .  S
N1444      N1445   1.321       .  A
N1444      N2090   1.315       .  A
N1444     Mn1452   2.206       .  S
N1445      C2093   1.357       .  A
N1446      N2088   1.314   1_545  A
N1446      N1447   1.318       .  A
N1446     Mn1464   2.190       .  S
N1447      C1454   1.351       .  A
N1448      N2086   1.314       .  A
N1448      N1449   1.319       .  A
N1448     Mn1452   2.192       .  S
N1449      C2094   1.351       .  A
N1450      N2084   1.315   1_545  A
N1450      N1451   1.318       .  A
N1450     Mn1464   2.199       .  S
N1451      C1453   1.353       .  A
Mn1452    Cl2105   2.547       .  S
C1453      N2085   1.357   1_545  A
C1453      C1543   1.504       .  S
C1454      N2089   1.351   1_545  A
C1454      C1868   1.470       .  S
N1455      N1456   1.316       .  A
N1455     Mn1463   2.184       .  S
N1457      N1458   1.319       .  A
N1457     Mn1464   2.204       .  S
N1458      C1467   1.354       .  A
N1459      N1460   1.323       .  A
N1459     Mn1463   2.215       .  S
N1461      N1462   1.319       .  A
N1461     Mn1464   2.183       .  S
N1462      C1466   1.354   1_655  A
Mn1464    Cl1465   2.544   1_545  S
Cl1465    Mn2092   2.547       .  S
C1466      C1487   1.494       .  S
C1467      C1501   1.497       .  S
C1468      C1515   1.528       .  S
C1468      C1602   1.518       .  S
C1468      C1469   1.392       .  D
C1469      C1504   1.517       .  S
C1469      C1585   1.532       .  S
C1470      C1546   1.506       .  S
C1470      C1574   1.539       .  S
C1470      C1471   1.396       .  D
C1471      C1532   1.523       .  S
C1471      C1557   1.523       .  S
C1472      C1473   1.606       .  S
C1472      C1490   1.599       .  S
C1472      C1616   1.601       .  S
C1473      C1478   1.450       .  A
C1474      C1475   1.421       .  A
C1474      C1479   1.449       .  S
C1475      C1476   1.403       .  A
C1475      C1482   1.452       .  S
C1477      C1478   1.406       .  A
C1477      C1480   1.458       .  S
C1478      C1481   1.453       .  S
C1479      N1486   1.157       .  T
C1480      N1485   1.157       .  T
C1481      N1483   1.158       .  T
C1482      N1484   1.157       .  T
C1487      C1492   1.408   1_455  A
C1488      C1489   1.412       .  A
C1488      C1493   1.457       .  S
C1489      C1490   1.447       .  A
C1489      C1496   1.453       .  S
C1491      C1492   1.417       .  A
C1491      C1494   1.450       .  S
C1492      C1495   1.455       .  S
C1493      N1500   1.158       .  T
C1494      N1499   1.158       .  T
C1495      N1497   1.157       .  T
C1496      N1498   1.157       .  T
C1501      C1506   1.413       .  A
C1502      C1503   1.417       .  A
C1502      C1507   1.451       .  S
C1503      C1504   1.420       .  A
C1503      C1510   1.450       .  S
C1505      C1506   1.409       .  A
C1505      C1508   1.453       .  S
C1506      C1509   1.450       .  S
C1507      N1514   1.157       .  T
C1508      N1513   1.157       .  T
C1509      N1511   1.156       .  T
C1510      N1512   1.157       .  T
C1515      C1516   1.425       .  A
C1516      C1517   1.410       .  A
C1516      C1521   1.451       .  S
C1517      C1524   1.452       .  S
C1518      C1519   1.413       .  A
C1519      C1520   1.419       .  A
C1519      C1522   1.451       .  S
C1520      C1523   1.448       .  S
C1521      N1528   1.158       .  T
C1522      N1527   1.157       .  T
C1523      N1525   1.157       .  T
C1524      N1526   1.157       .  T
C1529      C1530   1.418   1_565  A
C1529      C2174   1.414       .  A
C1530      C1531   1.414       .  A
C1530      C1535   1.454       .  S
C1531      C2172   1.421       .  A
C1531      C1538   1.449       .  S
C1532      C2171   1.421       .  A
C1532      C1533   1.420       .  A
C1533      C1534   1.414       .  A
C1533      C1536   1.450       .  S
C1534      C2169   1.414       .  A
C1534      C1537   1.450       .  S
C1535      N1542   1.158       .  T
C1536      N1541   1.157       .  T
C1537      N1539   1.157       .  T
C1538      N1540   1.157       .  T
C1543      C2184   1.421   1_545  A
C1543      C1548   1.416       .  A
C1544      C2183   1.421       .  A
C1544      C1545   1.416       .  A
C1544      C1549   1.451       .  S
C1545      C1546   1.417       .  A
C1545      C1552   1.451       .  S
C1546      C2187   1.410       .  A
C1547      C2186   1.410       .  A
C1547      C1548   1.404       .  A
C1547      C1550   1.451       .  S
C1548      C1551   1.450       .  S
C1549      N1556   1.158       .  T
C1550      N1555   1.157       .  T
C1551      N1553   1.158       .  T
C1552      N1554   1.157       .  T
C1557      C2198   1.423       .  A
C1557      C1562   1.420       .  A
C1558      C2197   1.423       .  A
C1558      C1559   1.411       .  A
C1558      C1563   1.450       .  S
C1559      C1560   1.413       .  A
C1559      C1566   1.453       .  S
C1560      C2201   1.418   1_545  A
C1561      C2200   1.418       .  A
C1561      C1562   1.423       .  A
C1561      C1564   1.450       .  S
C1562      C1565   1.450       .  S
C1563      N1570   1.157       .  T
C1564      N1569   1.157       .  T
C1565      N1567   1.157       .  T
C1566      N1568   1.157       .  T
C1571      C1572   1.408       .  A
C1571      C2216   1.399   1_545  A
C1572      C1573   1.415       .  A
C1572      C1577   1.450       .  S
C1573      C2214   1.423       .  A
C1573      C1580   1.447       .  S
C1574      C2213   1.423       .  A
C1574      C1575   1.441       .  A
C1575      C1576   1.411       .  A
C1575      C1578   1.448       .  S
C1576      C2211   1.399       .  A
C1576      C1579   1.457       .  S
C1577      N1584   1.157       .  T
C1578      N1583   1.158       .  T
C1579      N1581   1.158       .  T
C1580      N1582   1.157       .  T
C1585      C1586   1.426       .  A
C1586      C1587   1.418       .  A
C1586      C1591   1.447       .  S
C1587      C1594   1.451       .  S
C1588      C1589   1.402   1_655  A
C1589      C1590   1.408       .  A
C1589      C1592   1.452       .  S
C1590      C1593   1.450       .  S
C1591      N1598   1.157       .  T
C1592      N1597   1.157       .  T
C1593      N1595   1.158       .  T
C1594      N1596   1.157       .  T
C1599      C1600   1.416       .  A
C1600      C1601   1.409       .  A
C1600      C1605   1.452       .  S
C1601      C1608   1.453       .  S
C1602      C1603   1.419       .  A
C1603      C1604   1.419       .  A
C1603      C1606   1.450       .  S
C1604      C1607   1.450       .  S
C1605      N1612   1.157       .  T
C1606      N1611   1.157       .  T
C1607      N1609   1.157       .  T
C1608      N1610   1.157       .  T
C1613      C1614   1.409       .  A
C1613      C1618   1.408       .  A
C1614      C1615   1.421       .  A
C1614      C1619   1.453       .  S
C1615      C1616   1.446       .  A
C1615      C1622   1.449       .  S
C1616      C1617   1.445       .  A
C1617      C1618   1.407       .  A
C1617      C1620   1.452       .  S
C1618      C1621   1.457       .  S
C1619      N1626   1.157       .  T
C1620      N1625   1.157       .  T
C1621      N1623   1.158       .  T
C1622      N1624   1.158       .  T
C1627      C1628   1.395       .  A
C1627      C1632   1.399       .  A
C1628      C1629   1.408       .  A
C1628      C1633   1.459       .  S
C1629      C1630   1.451       .  A
C1629      C1636   1.451   1_655  S
C1630      C1631   1.446       .  A
C1631      C1632   1.420       .  A
C1631      C1634   1.448       .  S
C1632      C1635   1.453       .  S
C1633      N1640   1.158       .  T
C1634      N1639   1.157       .  T
C1635      N1637   1.157       .  T
C1636      N1638   1.158       .  T
C1641      C1642   1.418       .  A
C1641      C1646   1.417       .  A
C1642      C1643   1.419       .  A
C1642      C1647   1.452       .  S
C1643      C1644   1.421       .  A
C1643      C1650   1.449       .  S
C1644      C1645   1.420       .  A
C1645      C1646   1.412       .  A
C1645      C1648   1.451       .  S
C1646      C1649   1.452       .  S
C1647      N1654   1.158       .  T
C1648      N1653   1.157   1_554  T
C1649      N1651   1.158       .  T
C1650      N1652   1.157       .  T
C1655      C1656   1.415       .  A
C1655      C1660   1.417       .  A
C1656      C1657   1.409       .  A
C1656      C1661   1.451       .  S
C1657      C1658   1.418       .  A
C1657      C1664   1.452       .  S
C1658      C1659   1.419       .  A
C1659      C1660   1.416       .  A
C1659      C1662   1.450       .  S
C1660      C1663   1.452       .  S
C1661      N1668   1.158       .  T
C1662      N1667   1.157       .  T
C1663      N1665   1.158       .  T
C1664      N1666   1.157       .  T
C1669      C1670   1.418       .  A
C1669      C1674   1.414       .  A
C1670      C1671   1.421       .  A
C1670      C1675   1.450       .  S
C1671      C1672   1.420       .  A
C1671      C1678   1.450       .  S
C1672      C1673   1.420       .  A
C1673      C1674   1.408       .  A
C1673      C1676   1.451       .  S
C1674      C1677   1.452       .  S
C1675      N1682   1.157       .  T
C1676      N1681   1.157   1_556  T
C1677      N1679   1.158       .  T
C1678      N1680   1.157   1_545  T
C1683      C1684   1.428       .  A
C1683      C1688   1.425       .  A
C1684      C1685   1.410       .  A
C1684      C1689   1.449       .  S
C1685      C1686   1.404       .  A
C1685      C1692   1.452       .  S
C1686      C1687   1.412       .  A
C1687      C1688   1.418       .  A
C1687      C1690   1.451       .  S
C1688      C1691   1.447       .  S
C1689      N1696   1.158   1_556  T
C1690      N1695   1.157       .  T
C1691      N1693   1.157       .  T
C1692      N1694   1.157       .  T
C1697      C1702   1.408       .  A
C1698      C1699   1.412       .  A
C1698      C1703   1.456       .  S
C1699      C1706   1.454       .  S
C1700      C1701   1.451       .  A
C1701      C1702   1.414       .  A
C1701      C1704   1.455       .  S
C1702      C1705   1.458       .  S
C1703      N1710   1.158       .  T
C1704      N1709   1.159       .  T
C1705      N1707   1.157       .  T
C1706      N1708   1.157       .  T
C1711      C1712   1.454   1_655  A
C1712      C1713   1.416       .  A
C1712      C1717   1.449       .  S
C1713      C1714   1.399       .  A
C1713      C1720   1.457       .  S
C1715      C1716   1.408       .  A
C1715      C1718   1.457       .  S
C1716      C1719   1.452       .  S
C1717      N1724   1.158       .  T
C1718      N1723   1.158       .  T
C1719      N1721   1.157       .  T
C1720      N1722   1.157       .  T
C1725      C1726   1.448       .  A
C1725      C1730   1.450       .  A
C1726      C1727   1.408       .  A
C1726      C1731   1.453       .  S
C1727      C1728   1.400       .  A
C1727      C1734   1.456       .  S
C1728      C1729   1.401       .  A
C1729      C1730   1.412       .  A
C1729      C1732   1.456       .  S
C1730      C1733   1.452       .  S
C1732      N1737   1.157       .  T
C1733      N1735   1.159       .  T
C1734      N1736   1.158       .  T
C1739      C1740   1.448       .  A
C1739      C1744   1.448       .  A
C1740      C1741   1.416       .  A
C1740      C1745   1.452       .  S
C1741      C1742   1.405       .  A
C1741      C1748   1.456       .  S
C1742      C1743   1.401       .  A
C1743      C1744   1.407       .  A
C1743      C1746   1.457       .  S
C1744      C1747   1.452       .  S
C1745      N1752   1.159       .  T
C1746      N1751   1.158       .  T
C1747      N1749   1.157   1_655  T
C1748      N1750   1.157       .  T
C1753      C1924   1.608       .  S
C1753      C1754   1.448   1_565  A
C1753      C2398   1.451       .  A
C1754      C1755   1.422       .  A
C1754      C1759   1.448       .  S
C1755      C1756   1.401   1_545  A
C1755      C1762   1.452       .  S
C1756      C2397   1.405       .  A
C1757      C2396   1.405       .  A
C1757      C1758   1.415       .  A
C1757      C1760   1.457       .  S
C1758      C2393   1.451       .  A
C1758      C1761   1.451       .  S
C1759      N1766   1.158       .  T
C1760      N1765   1.158       .  T
C1761      N1763   1.157       .  T
C1762      N1764   1.157       .  T
C1767      C1924   1.615   1_545  S
C1767      C2408   1.444       .  A
C1767      C1772   1.453       .  A
C1768      C2407   1.444       .  A
C1768      C1769   1.424       .  A
C1768      C1773   1.447       .  S
C1769      C2410   1.403       .  A
C1769      C1776   1.453       .  S
C1770      C2409   1.403       .  A
C1770      C1771   1.396   1_545  A
C1771      C1772   1.410   1_565  A
C1771      C1774   1.458       .  S
C1772      C1775   1.454       .  S
C1773      N1780   1.157       .  T
C1774      N1779   1.158       .  T
C1775      N1777   1.158       .  T
C1776      N1778   1.157       .  T
C1781      C1924   1.616   1_545  S
C1781      C1782   1.444       .  A
C1781      C1786   1.456       .  A
C1782      C1783   1.424       .  A
C1782      C1787   1.447       .  S
C1783      C1784   1.401       .  A
C1783      C1790   1.453       .  S
C1784      C1785   1.395       .  A
C1785      C1786   1.411       .  A
C1785      C1788   1.459       .  S
C1786      C1789   1.453   1_545  S
C1787      N1794   1.157       .  T
C1788      N1793   1.158       .  T
C1789      N1791   1.158       .  T
C1790      N1792   1.157       .  T
C1795      C1796   1.448       .  A
C1795      C1800   1.447       .  A
C1796      C1797   1.413       .  A
C1796      C1801   1.452       .  S
C1797      C1798   1.408       .  A
C1797      C1804   1.458       .  S
C1798      C1799   1.408       .  A
C1799      C1800   1.425       .  A
C1799      C1802   1.454       .  S
C1800      C1803   1.448       .  S
C1801      N1808   1.157       .  T
C1802      N1807   1.157       .  T
C1803      N1805   1.158       .  T
C1804      N1806   1.158       .  T
C1809      C1810   1.423       .  A
C1809      C1814   1.426       .  A
C1810      C1811   1.418       .  A
C1810      C1815   1.449       .  S
C1811      C1812   1.413       .  A
C1811      C1818   1.451       .  S
C1812      C1813   1.404       .  A
C1813      C1814   1.407       .  A
C1813      C1816   1.452       .  S
C1814      C1817   1.450       .  S
C1815      N1822   1.157       .  T
C1816      N1821   1.157       .  T
C1817      N1819   1.158   1_554  T
C1818      N1820   1.157       .  T
C1823      C1824   1.425       .  A
C1823      C1828   1.422       .  A
C1824      C1825   1.406       .  A
C1824      C1829   1.451       .  S
C1825      C1826   1.405       .  A
C1825      C1832   1.452       .  S
C1826      C1827   1.413       .  A
C1827      C1828   1.416       .  A
C1827      C1830   1.451       .  S
C1828      C1831   1.449       .  S
C1829      N1836   1.157   1_554  T
C1830      N1835   1.157       .  T
C1831      N1833   1.157   1_655  T
C1832      N1834   1.157       .  T
C1837      C1838   1.419       .  A
C1837      C1842   1.418       .  A
C1838      C1839   1.417       .  A
C1838      C1843   1.451       .  S
C1839      C1840   1.419       .  A
C1839      C1846   1.451       .  S
C1840      C1841   1.416       .  A
C1841      C1842   1.408       .  A
C1841      C1844   1.452       .  S
C1842      C1845   1.453       .  S
C1843      N1850   1.157       .  T
C1844      N1849   1.158       .  T
C1845      N1847   1.157   1_556  T
C1846      N1848   1.157       .  T
C1851      C1852   1.412       .  A
C1851      C1856   1.405       .  A
C1852      C1853   1.413       .  A
C1852      C1857   1.452       .  S
C1853      C1854   1.423       .  A
C1853      C1860   1.448       .  S
C1854      C1855   1.425       .  A
C1855      C1856   1.408       .  A
C1855      C1858   1.451       .  S
C1856      C1859   1.450       .  S
C1857      N1864   1.157       .  T
C1858      N1863   1.157   1_556  T
C1859      N1861   1.157       .  T
C1860      N1862   1.157       .  T
C1865      C1921   1.604       .  S
C1865      C2506   1.451       .  A
C1865      C1870   1.445       .  A
C1866      C2505   1.451       .  A
C1866      C1867   1.404       .  A
C1866      C1871   1.454       .  S
C1867      C2508   1.395       .  A
C1867      C1874   1.459       .  S
C1868      C2507   1.395       .  A
C1868      C1869   1.398       .  A
C1869      C1870   1.418       .  A
C1869      C1872   1.453       .  S
C1870      C1873   1.448       .  S
C1871      N1878   1.158       .  T
C1872      N1877   1.157       .  T
C1873      N1875   1.157       .  T
C1874      N1876   1.158       .  T
C1879      C1880   1.408   1_565  A
C1879      C2524   1.406       .  A
C1880      C1881   1.421       .  A
C1880      C1885   1.455       .  S
C1881      C1882   1.445   1_545  A
C1881      C1888   1.449       .  S
C1882      C1921   1.602   1_565  S
C1882      C2523   1.449       .  A
C1883      C2522   1.449       .  A
C1883      C1884   1.412       .  A
C1883      C1886   1.452       .  S
C1884      C2519   1.406       .  A
C1884      C1887   1.458       .  S
C1885      N1892   1.157       .  T
C1886      N1891   1.157       .  T
C1887      N1889   1.158       .  T
C1888      N1890   1.158       .  T
C1893      C1921   1.608       .  S
C1893      C1894   1.446       .  A
C1893      C1898   1.453       .  A
C1894      C1895   1.420       .  A
C1894      C1899   1.448       .  S
C1895      C1896   1.400       .  A
C1895      C1902   1.453       .  S
C1896      C1897   1.394       .  A
C1897      C1898   1.405       .  A
C1897      C1900   1.459       .  S
C1898      C1901   1.453   1_545  S
C1899      N1906   1.157       .  T
C1900      N1905   1.157       .  T
C1901      N2543   1.158       .  T
C1902      N1904   1.157       .  T
N1903      C2541   1.158       .  T
C1907      C1908   1.408       .  A
C1907      C1912   1.409       .  A
C1908      C1909   1.420       .  A
C1908      C1913   1.456       .  S
C1909      C1910   1.446       .  A
C1909      C1916   1.449       .  S
C1910      C1911   1.446       .  A
C1911      C1912   1.411       .  A
C1911      C1914   1.453       .  S
C1912      C1915   1.458       .  S
C1913      N1920   1.157       .  T
C1914      N1919   1.157       .  T
C1915      N1917   1.158       .  T
C1916      N1918   1.158       .  T
C1921      C2550   1.600   1_545  S
C1922      C2463   1.519       .  S
C1922      C2494   1.523   1_554  S
C1923      C2449   1.523       .  S
C1923      C2477   1.515   1_554  S
C1924      C2435   1.606       .  S
C1925      C2365   1.600       .  S
C1926      C2298   1.515       .  S
C1926      C2323   1.528   1_554  S
C1927      C2284   1.523       .  S
C1927      C2312   1.518   1_554  S
N1928      N1929   1.322       .  A
N1928      N1934   1.315       .  A
N1928     Mn1957   2.218       .  S
N1929      C1936   1.357       .  A
N1930      N1932   1.312       .  A
N1930      N1931   1.315       .  A
N1930     Mn1946   2.184       .  S
N1931      C1937   1.351       .  A
N1932      N1933   1.324       .  A
N1932     Mn1957   2.211       .  S
N1933      C1937   1.359       .  A
N1934      N1935   1.321       .  A
N1934     Mn1946   2.196       .  S
N1935      C1936   1.352       .  A
C1936      C2326   1.493       .  S
C1937      C2438   1.503       .  S
N1938      N1944   1.312       .  A
N1938      N1939   1.318       .  A
N1938     Mn1968   2.192       .  S
N1939      C1947   1.354       .  A
N1940      N1941   1.318       .  A
N1940      N1942   1.317       .  A
N1940     Mn1946   2.190       .  S
N1941      C1948   1.350       .  A
N1942      N1943   1.322       .  A
N1942     Mn1968   2.221       .  S
N1943      C1948   1.357       .  A
N1944      N1945   1.318       .  A
N1944     Mn1946   2.176       .  S
N1945      C1947   1.350       .  A
Mn1946    Cl1970   2.541       .  S
C1947      C2382   1.484       .  S
C1948      C2491   1.488       .  S
N1949      N1950   1.318       .  A
N1949      N1955   1.315       .  A
N1949     Mn1957   2.188       .  S
N1950      C1958   1.352       .  A
N1951      N1953   1.318       .  A
N1951      N1952   1.323       .  A
N1951     Mn1969   2.218       .  S
N1952      C1959   1.358       .  A
N1953      N1954   1.317       .  A
N1953     Mn1957   2.203       .  S
N1954      C1959   1.352       .  A
N1955      N1956   1.317       .  A
N1955     Mn1969   2.186       .  S
N1956      C1958   1.350       .  A
Mn1957    Cl1970   2.549       .  S
C1958      C2368   1.479       .  S
C1959      C2480   1.503       .  S
N1960      N1961   1.317       .  A
N1960      N1966   1.315       .  A
N1960     Mn1968   2.200       .  S
N1961      C1971   1.353       .  A
N1962      N1963   1.322       .  A
N1962      N1964   1.315       .  A
N1962     Mn1969   2.215       .  S
N1963      C1972   1.354       .  A
N1964      N1965   1.322       .  A
N1964     Mn1968   2.204       .  S
N1965      C1972   1.353       .  A
N1966      N1967   1.325       .  A
N1966     Mn1969   2.215       .  S
N1967      C1971   1.359       .  A
Mn1968    Cl1970   2.544       .  S
Mn1969    Cl1970   2.549       .  S
C1971      C2309   1.506       .  S
C1972      C2424   1.485       .  S
N1973      N1974   1.313       .  A
N1973      N1979   1.311       .  A
N1973     Mn2002   2.178       .  S
N1974      C1981   1.350       .  A
N1975      N1977   1.317       .  A
N1975      N1976   1.322       .  A
N1975     Mn1991   2.202       .  S
N1976      C1982   1.353       .  A
N1977      N1978   1.320       .  A
N1977     Mn2002   2.216       .  S
N1978      C1982   1.355       .  A
N1979      N1980   1.323       .  A
N1979     Mn1991   2.200       .  S
N1980      C1981   1.358       .  A
C1981      C2253   1.501       .  S
C1982      C2452   1.491       .  S
N1983      N1989   1.316       .  A
N1983      N1984   1.319       .  A
N1983     Mn2013   2.198       .  S
N1984      C1992   1.353       .  A
N1985      N1986   1.314       .  A
N1985      N1987   1.312       .  A
N1985     Mn1991   2.180       .  S
N1986      C1993   1.350       .  A
N1987      N1988   1.321       .  A
N1987     Mn2013   2.198       .  S
N1988      C1993   1.356       .  A
N1989      N1990   1.322       .  A
N1989     Mn1991   2.215       .  S
N1990      C1992   1.357       .  A
Mn1991    Cl2015   2.549       .  S
C1992      C2295   1.503       .  S
C1993      C2547   1.496       .  S
N1994      N1995   1.319       .  A
N1994      N2000   1.315       .  A
N1994     Mn2002   2.197       .  S
N1995      C2003   1.353       .  A
N1996      N1998   1.314       .  A
N1996      N1997   1.318       .  A
N1996     Mn2014   2.190       .  S
N1997      C2004   1.351       .  A
N1998      N1999   1.320       .  A
N1998     Mn2002   2.199       .  S
N1999      C2004   1.352       .  A
N2000      N2001   1.324       .  A
N2000     Mn2014   2.224       .  S
N2001      C2003   1.359       .  A
Mn2002    Cl2015   2.538       .  S
C2003      C2281   1.510       .  S
C2004      C2536   1.474       .  S
N2005      N2006   1.319       .  A
N2005      N2011   1.314       .  A
N2005     Mn2013   2.189       .  S
N2006      C2016   1.350       .  A
N2007      N2008   1.321       .  A
N2007      N2009   1.317       .  A
N2007     Mn2014   2.200       .  S
N2008      C2017   1.353       .  A
N2009      N2010   1.320       .  A
N2009     Mn2013   2.215       .  S
N2010      C2017   1.354       .  A
N2011      N2012   1.321       .  A
N2011     Mn2014   2.204       .  S
N2012      C2016   1.353       .  A
Mn2013    Cl2015   2.543       .  S
Mn2014    Cl2015   2.550       .  S
C2016      C2267   1.477       .  S
C2017      C2466   1.488       .  S
N2018      N2019   1.320       .  A
N2018     Mn2047   2.203       .  S
N2019      C2026   1.352       .  A
N2020      N2021   1.326       .  A
N2020     Mn2036   2.220       .  S
N2022      N2023   1.319       .  A
N2022     Mn2047   2.211       .  S
N2023      C2027   1.354       .  A
N2024      N2025   1.323       .  A
N2024     Mn2036   2.220       .  S
C2026      C2410   1.485       .  S
C2027      C2200   1.508       .  S
N2028      N2029   1.317       .  A
N2028     Mn2058   2.201       .  S
N2029      C2037   1.352       .  A
N2030      N2031   1.322       .  A
N2030     Mn2036   2.201       .  S
N2032      N2033   1.315       .  A
N2032     Mn2058   2.177       .  S
N2033      C2038   1.348   1_655  A
N2034      N2035   1.325       .  A
N2034     Mn2036   2.231       .  S
C2037      C2239   1.503       .  S
C2038      C2354   1.483       .  S
N2039      N2040   1.321       .  A
N2039     Mn2047   2.224       .  S
N2041      N2042   1.312       .  A
N2041     Mn2059   2.160       .  S
N2042      C2049   1.348       .  A
N2043      N2044   1.320       .  A
N2043     Mn2047   2.196       .  S
N2045      N2046   1.322       .  A
N2045     Mn2059   2.209       .  S
N2046      C2048   1.353       .  A
C2048      C2228   1.490       .  S
C2049      C2337   1.493       .  S
N2050      N2051   1.317       .  A
N2050     Mn2058   2.192       .  S
N2052      N2053   1.318       .  A
N2052     Mn2059   2.177       .  S
N2053      C2062   1.348       .  A
N2054      N2055   1.322       .  A
N2054     Mn2058   2.217       .  S
N2056      N2057   1.325       .  A
N2056     Mn2059   2.217       .  S
N2057      C2061   1.360       .  A
Mn2059    Cl2060   2.563   1_655  S
C2061      C2396   1.500       .  S
C2062      C2211   1.483       .  S
N2063      N2064   1.319       .  A
N2063     Mn2092   2.187       .  S
N2064      C2071   1.350   1_655  A
N2065      N2066   1.320       .  A
N2065     Mn2081   2.213       .  S
N2067      N2068   1.323       .  A
N2067     Mn2092   2.218       .  S
N2068      C2072   1.356       .  A
N2069      N2070   1.321       .  A
N2069     Mn2081   2.202       .  S
C2071      C2116   1.477   1_455  S
C2072      C2158   1.497       .  S
N2073      N2074   1.317       .  A
N2073     Mn2103   2.197       .  S
N2074      C2082   1.353       .  A
N2075      N2076   1.317       .  A
N2075     Mn2081   2.192       .  S
N2077      N2078   1.321       .  A
N2077     Mn2103   2.195       .  S
N2078      C2083   1.355       .  A
N2079      N2080   1.324       .  A
N2079     Mn2081   2.220       .  S
C2082      C2169   1.506       .  S
C2083      C2519   1.497       .  S
N2084      N2085   1.321       .  A
N2084     Mn2092   2.206       .  S
N2086      N2087   1.318       .  A
N2086     Mn2104   2.190       .  S
N2087      C2094   1.351       .  A
N2088      N2089   1.319       .  A
N2088     Mn2092   2.192       .  S
N2090      N2091   1.318       .  A
N2090     Mn2104   2.199       .  S
N2091      C2093   1.353       .  A
C2093      C2183   1.504       .  S
C2094      C2508   1.470       .  S
N2095      N2096   1.316       .  A
N2095     Mn2103   2.184       .  S
N2097      N2098   1.319       .  A
N2097     Mn2104   2.204       .  S
N2098      C2107   1.354       .  A
N2099      N2100   1.323       .  A
N2099     Mn2103   2.215       .  S
N2101      N2102   1.319       .  A
N2101     Mn2104   2.183       .  S
N2102      C2106   1.354   1_655  A
Mn2104    Cl2105   2.544       .  S
C2106      C2127   1.494       .  S
C2107      C2141   1.497       .  S
C2108      C2155   1.528       .  S
C2108      C2242   1.518       .  S
C2108      C2109   1.392       .  D
C2109      C2144   1.517       .  S
C2109      C2225   1.532       .  S
C2110      C2186   1.506       .  S
C2110      C2214   1.539       .  S
C2110      C2111   1.396       .  D
C2111      C2172   1.523       .  S
C2111      C2197   1.523       .  S
C2112      C2113   1.606       .  S
C2112      C2130   1.599       .  S
C2112      C2256   1.601       .  S
C2113      C2118   1.450       .  A
C2114      C2115   1.421       .  A
C2114      C2119   1.449       .  S
C2115      C2116   1.403       .  A
C2115      C2122   1.452       .  S
C2117      C2118   1.406       .  A
C2117      C2120   1.458       .  S
C2118      C2121   1.453       .  S
C2119      N2126   1.157       .  T
C2120      N2125   1.157       .  T
C2121      N2123   1.158       .  T
C2122      N2124   1.157       .  T
C2127      C2132   1.408   1_455  A
C2128      C2129   1.412       .  A
C2128      C2133   1.457       .  S
C2129      C2130   1.447       .  A
C2129      C2136   1.453       .  S
C2131      C2132   1.417       .  A
C2131      C2134   1.450       .  S
C2132      C2135   1.455       .  S
C2133      N2140   1.158       .  T
C2134      N2139   1.158       .  T
C2135      N2137   1.157       .  T
C2136      N2138   1.157       .  T
C2141      C2146   1.413       .  A
C2142      C2143   1.417       .  A
C2142      C2147   1.451       .  S
C2143      C2144   1.420       .  A
C2143      C2150   1.450       .  S
C2145      C2146   1.409       .  A
C2145      C2148   1.453       .  S
C2146      C2149   1.450       .  S
C2147      N2154   1.157       .  T
C2148      N2153   1.157       .  T
C2149      N2151   1.156       .  T
C2150      N2152   1.157       .  T
C2155      C2156   1.425       .  A
C2156      C2157   1.410       .  A
C2156      C2161   1.451       .  S
C2157      C2164   1.452       .  S
C2158      C2159   1.413       .  A
C2159      C2160   1.419       .  A
C2159      C2162   1.451       .  S
C2160      C2163   1.448       .  S
C2161      N2168   1.158       .  T
C2162      N2167   1.157       .  T
C2163      N2165   1.157       .  T
C2164      N2166   1.157       .  T
C2169      C2170   1.418       .  A
C2170      C2171   1.414       .  A
C2170      C2175   1.454       .  S
C2171      C2178   1.449       .  S
C2172      C2173   1.420   1_545  A
C2173      C2174   1.414       .  A
C2173      C2176   1.450       .  S
C2174      C2177   1.450       .  S
C2175      N2182   1.158       .  T
C2176      N2181   1.157       .  T
C2177      N2179   1.157       .  T
C2178      N2180   1.157       .  T
C2183      C2188   1.416       .  A
C2184      C2185   1.416       .  A
C2184      C2189   1.451       .  S
C2185      C2186   1.417   1_565  A
C2185      C2192   1.451       .  S
C2187      C2188   1.404       .  A
C2187      C2190   1.451       .  S
C2188      C2191   1.450       .  S
C2189      N2196   1.158       .  T
C2190      N2195   1.157       .  T
C2191      N2193   1.158       .  T
C2192      N2194   1.157       .  T
C2197      C2202   1.420   1_545  A
C2198      C2199   1.411       .  A
C2198      C2203   1.450       .  S
C2199      C2200   1.413       .  A
C2199      C2206   1.453       .  S
C2201      C2202   1.423       .  A
C2201      C2204   1.450       .  S
C2202      C2205   1.450       .  S
C2203      N2210   1.157       .  T
C2204      N2209   1.157       .  T
C2205      N2207   1.157       .  T
C2206      N2208   1.157       .  T
C2211      C2212   1.408       .  A
C2212      C2213   1.415       .  A
C2212      C2217   1.450       .  S
C2213      C2220   1.447       .  S
C2214      C2215   1.441   1_545  A
C2215      C2216   1.411       .  A
C2215      C2218   1.448       .  S
C2216      C2219   1.457       .  S
C2217      N2224   1.157       .  T
C2218      N2223   1.158       .  T
C2219      N2221   1.158       .  T
C2220      N2222   1.157       .  T
C2225      C2226   1.426       .  A
C2226      C2227   1.418       .  A
C2226      C2231   1.447       .  S
C2227      C2234   1.451       .  S
C2228      C2229   1.402   1_655  A
C2229      C2230   1.408       .  A
C2229      C2232   1.452       .  S
C2230      C2233   1.450       .  S
C2231      N2238   1.157       .  T
C2232      N2237   1.157       .  T
C2233      N2235   1.158       .  T
C2234      N2236   1.157       .  T
C2239      C2240   1.416       .  A
C2240      C2241   1.409       .  A
C2240      C2245   1.452       .  S
C2241      C2248   1.453       .  S
C2242      C2243   1.419       .  A
C2243      C2244   1.419       .  A
C2243      C2246   1.450       .  S
C2244      C2247   1.450       .  S
C2245      N2252   1.157       .  T
C2246      N2251   1.157       .  T
C2247      N2249   1.157       .  T
C2248      N2250   1.157       .  T
C2253      C2254   1.409       .  A
C2253      C2258   1.408       .  A
C2254      C2255   1.421       .  A
C2254      C2259   1.453       .  S
C2255      C2256   1.446       .  A
C2255      C2262   1.449       .  S
C2256      C2257   1.445       .  A
C2257      C2258   1.407       .  A
C2257      C2260   1.452       .  S
C2258      C2261   1.457       .  S
C2259      N2266   1.157       .  T
C2260      N2265   1.157       .  T
C2261      N2263   1.158       .  T
C2262      N2264   1.158       .  T
C2267      C2268   1.395       .  A
C2267      C2272   1.399       .  A
C2268      C2269   1.408       .  A
C2268      C2273   1.459       .  S
C2269      C2270   1.451       .  A
C2269      C2276   1.451   1_655  S
C2270      C2271   1.446       .  A
C2271      C2272   1.420       .  A
C2271      C2274   1.448       .  S
C2272      C2275   1.453       .  S
C2273      N2280   1.158       .  T
C2274      N2279   1.157       .  T
C2275      N2277   1.157       .  T
C2276      N2278   1.158       .  T
C2281      C2282   1.418       .  A
C2281      C2286   1.417       .  A
C2282      C2283   1.419       .  A
C2282      C2287   1.452       .  S
C2283      C2284   1.421       .  A
C2283      C2290   1.449       .  S
C2284      C2285   1.420       .  A
C2285      C2286   1.412       .  A
C2285      C2288   1.451       .  S
C2286      C2289   1.452       .  S
C2287      N2294   1.158       .  T
C2288      N2293   1.157   1_554  T
C2289      N2291   1.158       .  T
C2290      N2292   1.157       .  T
C2295      C2296   1.415       .  A
C2295      C2300   1.417       .  A
C2296      C2297   1.409       .  A
C2296      C2301   1.451       .  S
C2297      C2298   1.418       .  A
C2297      C2304   1.452       .  S
C2298      C2299   1.419       .  A
C2299      C2300   1.416       .  A
C2299      C2302   1.450       .  S
C2300      C2303   1.452       .  S
C2301      N2308   1.158       .  T
C2302      N2307   1.157       .  T
C2303      N2305   1.158       .  T
C2304      N2306   1.157       .  T
C2309      C2310   1.418       .  A
C2309      C2314   1.414       .  A
C2310      C2311   1.421       .  A
C2310      C2315   1.450       .  S
C2311      C2312   1.420       .  A
C2311      C2318   1.450       .  S
C2312      C2313   1.420       .  A
C2313      C2314   1.408       .  A
C2313      C2316   1.451       .  S
C2314      C2317   1.452       .  S
C2315      N2322   1.157       .  T
C2316      N2321   1.157   1_556  T
C2317      N2319   1.158       .  T
C2318      N2320   1.157       .  T
C2323      C2324   1.428       .  A
C2323      C2328   1.425       .  A
C2324      C2325   1.410       .  A
C2324      C2329   1.449       .  S
C2325      C2326   1.404       .  A
C2325      C2332   1.452       .  S
C2326      C2327   1.412       .  A
C2327      C2328   1.418       .  A
C2327      C2330   1.451       .  S
C2328      C2331   1.447       .  S
C2329      N2336   1.158   1_556  T
C2330      N2335   1.157       .  T
C2331      N2333   1.157       .  T
C2332      N2334   1.157       .  T
C2337      C2342   1.408       .  A
C2338      C2339   1.412       .  A
C2338      C2343   1.456       .  S
C2339      C2346   1.454       .  S
C2340      C2341   1.451       .  A
C2341      C2342   1.414       .  A
C2341      C2344   1.455       .  S
C2342      C2345   1.458       .  S
C2343      N2350   1.158       .  T
C2344      N2349   1.159       .  T
C2345      N2347   1.157       .  T
C2346      N2348   1.157       .  T
C2351      C2352   1.454   1_655  A
C2352      C2353   1.416       .  A
C2352      C2357   1.449       .  S
C2353      C2354   1.399       .  A
C2353      C2360   1.457       .  S
C2355      C2356   1.408       .  A
C2355      C2358   1.457       .  S
C2356      C2359   1.452       .  S
C2357      N2364   1.158       .  T
C2358      N2363   1.158       .  T
C2359      N2361   1.157       .  T
C2360      N2362   1.157       .  T
C2365      C2366   1.448       .  A
C2365      C2370   1.450       .  A
C2366      C2367   1.408       .  A
C2366      C2371   1.453       .  S
C2367      C2368   1.400       .  A
C2367      C2374   1.456       .  S
C2368      C2369   1.401       .  A
C2369      C2370   1.412       .  A
C2369      C2372   1.456       .  S
C2370      C2373   1.452       .  S
C2372      N2377   1.157       .  T
C2373      N2375   1.159       .  T
C2374      N2376   1.158       .  T
C2379      C2380   1.448       .  A
C2379      C2384   1.448       .  A
C2380      C2381   1.416       .  A
C2380      C2385   1.452       .  S
C2381      C2382   1.405       .  A
C2381      C2388   1.456       .  S
C2382      C2383   1.401       .  A
C2383      C2384   1.407       .  A
C2383      C2386   1.457       .  S
C2384      C2387   1.452       .  S
C2385      N2392   1.159       .  T
C2386      N2391   1.158       .  T
C2387      N2389   1.157   1_655  T
C2388      N2390   1.157       .  T
C2393      C2394   1.448       .  A
C2394      C2395   1.422       .  A
C2394      C2399   1.448       .  S
C2395      C2396   1.401       .  A
C2395      C2402   1.452       .  S
C2397      C2398   1.415       .  A
C2397      C2400   1.457       .  S
C2398      C2401   1.451       .  S
C2399      N2406   1.158       .  T
C2400      N2405   1.158       .  T
C2401      N2403   1.157       .  T
C2402      N2404   1.157       .  T
C2407      C2412   1.453       .  A
C2408      C2409   1.424       .  A
C2408      C2413   1.447       .  S
C2409      C2416   1.453       .  S
C2410      C2411   1.396       .  A
C2411      C2412   1.410       .  A
C2411      C2414   1.458       .  S
C2412      C2415   1.454       .  S
C2413      N2420   1.157       .  T
C2414      N2419   1.158       .  T
C2415      N2417   1.158       .  T
C2416      N2418   1.157       .  T
C2421      C2422   1.444       .  A
C2421      C2426   1.456       .  A
C2422      C2423   1.424       .  A
C2422      C2427   1.447       .  S
C2423      C2424   1.401       .  A
C2423      C2430   1.453       .  S
C2424      C2425   1.395       .  A
C2425      C2426   1.411       .  A
C2425      C2428   1.459       .  S
C2426      C2429   1.453       .  S
C2427      N2434   1.157       .  T
C2428      N2433   1.158       .  T
C2429      N2431   1.158       .  T
C2430      N2432   1.157       .  T
C2435      C2436   1.448       .  A
C2435      C2440   1.447       .  A
C2436      C2437   1.413       .  A
C2436      C2441   1.452       .  S
C2437      C2438   1.408       .  A
C2437      C2444   1.458       .  S
C2438      C2439   1.408       .  A
C2439      C2440   1.425       .  A
C2439      C2442   1.454       .  S
C2440      C2443   1.448       .  S
C2441      N2448   1.157       .  T
C2442      N2447   1.157       .  T
C2443      N2445   1.158       .  T
C2444      N2446   1.158       .  T
C2449      C2450   1.423       .  A
C2449      C2454   1.426       .  A
C2450      C2451   1.418       .  A
C2450      C2455   1.449       .  S
C2451      C2452   1.413       .  A
C2451      C2458   1.451       .  S
C2452      C2453   1.404       .  A
C2453      C2454   1.407       .  A
C2453      C2456   1.452       .  S
C2454      C2457   1.450       .  S
C2455      N2462   1.157       .  T
C2456      N2461   1.157       .  T
C2457      N2459   1.158   1_554  T
C2458      N2460   1.157       .  T
C2463      C2464   1.425       .  A
C2463      C2468   1.422       .  A
C2464      C2465   1.406       .  A
C2464      C2469   1.451       .  S
C2465      C2466   1.405       .  A
C2465      C2472   1.452       .  S
C2466      C2467   1.413       .  A
C2467      C2468   1.416       .  A
C2467      C2470   1.451       .  S
C2468      C2471   1.449       .  S
C2469      N2476   1.157   1_554  T
C2470      N2475   1.157       .  T
C2471      N2473   1.157   1_655  T
C2472      N2474   1.157       .  T
C2477      C2478   1.419       .  A
C2477      C2482   1.418       .  A
C2478      C2479   1.417       .  A
C2478      C2483   1.451       .  S
C2479      C2480   1.419       .  A
C2479      C2486   1.451       .  S
C2480      C2481   1.416       .  A
C2481      C2482   1.408       .  A
C2481      C2484   1.452       .  S
C2482      C2485   1.453       .  S
C2483      N2490   1.157       .  T
C2484      N2489   1.158       .  T
C2485      N2487   1.157   1_556  T
C2486      N2488   1.157       .  T
C2491      C2492   1.412       .  A
C2491      C2496   1.405       .  A
C2492      C2493   1.413       .  A
C2492      C2497   1.452       .  S
C2493      C2494   1.423       .  A
C2493      C2500   1.448       .  S
C2494      C2495   1.425       .  A
C2495      C2496   1.408       .  A
C2495      C2498   1.451       .  S
C2496      C2499   1.450       .  S
C2497      N2504   1.157       .  T
C2498      N2503   1.157   1_556  T
C2499      N2501   1.157       .  T
C2500      N2502   1.157       .  T
C2505      C2510   1.445       .  A
C2506      C2507   1.404       .  A
C2506      C2511   1.454       .  S
C2507      C2514   1.459   1_545  S
C2508      C2509   1.398       .  A
C2509      C2510   1.418       .  A
C2509      C2512   1.453       .  S
C2510      C2513   1.448       .  S
C2511      N2518   1.158       .  T
C2512      N2517   1.157       .  T
C2513      N2515   1.157       .  T
C2514      N2516   1.158       .  T
C2519      C2520   1.408       .  A
C2520      C2521   1.421       .  A
C2520      C2525   1.455       .  S
C2521      C2522   1.445       .  A
C2521      C2528   1.449       .  S
C2523      C2524   1.412       .  A
C2523      C2526   1.452       .  S
C2524      C2527   1.458       .  S
C2525      N2532   1.157       .  T
C2526      N2531   1.157       .  T
C2527      N2529   1.158       .  T
C2528      N2530   1.158       .  T
C2533      C2534   1.446       .  A
C2533      C2538   1.453       .  A
C2534      C2535   1.420       .  A
C2534      C2539   1.448       .  S
C2535      C2536   1.400       .  A
C2535      C2542   1.453       .  S
C2536      C2537   1.394       .  A
C2537      C2538   1.405       .  A
C2537      C2540   1.459       .  S
C2538      C2541   1.453       .  S
C2539      N2546   1.157       .  T
C2540      N2545   1.157       .  T
C2542      N2544   1.157       .  T
C2547      C2548   1.408       .  A
C2547      C2552   1.409       .  A
C2548      C2549   1.420       .  A
C2548      C2553   1.456       .  S
C2549      C2550   1.446       .  A
C2549      C2556   1.449       .  S
C2550      C2551   1.446       .  A
C2551      C2552   1.411       .  A
C2551      C2554   1.453       .  S
C2552      C2555   1.458       .  S
C2553      N2560   1.157       .  T
C2554      N2559   1.157       .  T
C2555      N2557   1.158       .  T
C2556      N2558   1.158       .  T
