geometry optimzed in LAMMPS
_audit_creation_date              2020-12-01 
_audit_creation_method            'lammps2cif' 
_symmetry_space_group_name_H-M    'P1' 
_symmetry_Int_Tables_number       1 
_symmetry_cell_setting            triclinic 
loop_ 
_symmetry_equiv_pos_as_xyz 
  x,y,z 
_cell_length_a                    26.17739968 
_cell_length_b                    33.615320475450474 
_cell_length_c                    28.53930846218576 
_cell_angle_alpha                 89.99996178145453 
_cell_angle_beta                  90.00698662072239 
_cell_angle_gamma                 89.99155142878095 
loop_ 
_atom_site_label 
_atom_site_type_symbol 
_atom_site_fract_x 
_atom_site_fract_y 
_atom_site_fract_z 
_atom_site_charge 
O1          O  0.25073933  0.75671647  0.32723761    -0.71800
O2          O  0.25072090  0.80384517  0.20501403    -0.71900
O3          O  0.17756259  0.78049073  0.26555990    -0.71900
O4          O  0.32390253  0.78048863  0.26556414    -0.72000
O5          O  0.32390967  0.71952200  0.23445221    -0.71900
O6          O  0.17756973  0.71952301  0.23445078    -0.71900
O7          O  0.25072586  0.74329574  0.17277587    -0.71800
O8          O  0.25074830  0.69616704  0.29499942    -0.71900
Ni9        Ni  0.25073215  0.78252168  0.26709955     1.25400
Ni10       Ni  0.25073965  0.71749052  0.23291394     1.25400
C11         C  0.25073962  0.71874662  0.33103381     0.90400
C12         C  0.25071406  0.78126559  0.16897964     0.90300
C13         C  0.15364484  0.75000693  0.25000537     0.90300
C14         C  0.34782749  0.75000522  0.25000817     0.90500
O15         O  0.00073971  0.69616684  0.20501424    -0.71800
O16         O  0.50074440  0.74329579  0.32723758    -0.71900
O17         O  0.42757448  0.71952154  0.26556170    -0.71900
O18         O  0.07391443  0.71952342  0.26556245    -0.72000
O19         O  0.07389779  0.78048993  0.23445014    -0.71900
O20         O  0.42755786  0.78048926  0.23445258    -0.71900
O21         O  0.00072976  0.80384518  0.29499925    -0.71800
O22         O  0.50072068  0.75671623  0.17277590    -0.71900
Ni23       Ni  0.00074489  0.71749048  0.26709963     1.25400
Ni24       Ni  0.00072694  0.78252154  0.23291384     1.25400
C25         C  0.00072277  0.71874639  0.16897979     0.90400
C26         C  0.00073103  0.78126563  0.33103370     0.90300
C27         C  0.40364484  0.75000534  0.25000752     0.90300
C28         C  0.09782750  0.75000678  0.25000597     0.90500
O29         O  0.32359664  0.21952147  0.73445247    -0.71800
O30         O  0.17725667  0.21952360  0.73444800    -0.71900
O31         O  0.25041986  0.24329570  0.67277476    -0.71900
O32         O  0.25043817  0.19616692  0.79499826    -0.72000
O33         O  0.25043326  0.25671635  0.82723641    -0.71900
O34         O  0.25041087  0.30384516  0.70501289    -0.71900
O35         O  0.17724959  0.28049016  0.76556012    -0.71800
O36         O  0.32358948  0.28048919  0.76556156    -0.71900
Ni37       Ni  0.25042705  0.21749049  0.73291275     1.25400
Ni38       Ni  0.25041958  0.28252165  0.76709838     1.25400
C39         C  0.34751439  0.25000525  0.75000704     0.90400
C40         C  0.15333173  0.25000698  0.75000408     0.90300
C41         C  0.25041937  0.28126553  0.66897853     0.90300
C42         C  0.25044487  0.21874650  0.83103264     0.90500
O43         O  0.00042941  0.19616690  0.70501312    -0.71800
O44         O  0.00043846  0.24329595  0.82723648    -0.71900
O45         O  0.42726145  0.21952224  0.76556230    -0.71900
O46         O  0.07360139  0.21952291  0.76555981    -0.72000
O47         O  0.07358473  0.28049064  0.73445061    -0.71900
O48         O  0.42724479  0.28048876  0.73444994    -0.71900
O49         O  0.00041966  0.30384535  0.79499807    -0.71800
O50         O  0.00041473  0.25671633  0.67277480    -0.71900
Ni51       Ni  0.00043229  0.21749055  0.76709858     1.25400
Ni52       Ni  0.00041435  0.28252169  0.73291272     1.25400
C53         C  0.00042805  0.21874649  0.66897867     0.90400
C54         C  0.00043634  0.28126580  0.83103254     0.90300
C55         C  0.40333173  0.25000541  0.75000647     0.90300
C56         C  0.09751439  0.25000685  0.75000482     0.90500
O57         O  0.25071992  0.75671535  0.67277580    -0.71800
O58         O  0.25072869  0.80384418  0.79499924    -0.71900
O59         O  0.32389675  0.78048902  0.73445004    -0.71900
O60         O  0.17755683  0.78048828  0.73445247    -0.72000
O61         O  0.17757335  0.71952064  0.76556187    -0.71900
O62         O  0.32391332  0.71952257  0.76556256    -0.71900
O63         O  0.25074325  0.74329482  0.82723769    -0.71800
O64         O  0.25073861  0.69616599  0.70501422    -0.71900
Ni65       Ni  0.25072595  0.78252062  0.73291377     1.25400
Ni66       Ni  0.25074377  0.71748957  0.76709972     1.25400
C67         C  0.25072192  0.71874552  0.66897972     0.90400
C68         C  0.25072983  0.78126467  0.83103373     0.90300
C69         C  0.34782642  0.75000587  0.75000591     0.90300
C70         C  0.15364376  0.75000439  0.75000756     0.90500
O71         O  0.50074724  0.69616616  0.79499938    -0.71800
O72         O  0.00072506  0.74329486  0.67277580    -0.71900
O73         O  0.07390865  0.71952106  0.73445205    -0.71900
O74         O  0.42756870  0.71952213  0.73445061    -0.72000
O75         O  0.42756147  0.78048985  0.76555973    -0.71900
O76         O  0.07390142  0.78048759  0.76556429    -0.71900
O77         O  0.50072006  0.80384426  0.70501406    -0.71800
O78         O  0.00073811  0.75671557  0.82723761    -0.71900
Ni79       Ni  0.00073865  0.71748962  0.73291383     1.25400
Ni80       Ni  0.00073106  0.78252075  0.76709955     1.25400
C81         C  0.00073853  0.71874573  0.83103379     0.90400
C82         C  0.00071334  0.78126470  0.66897965     0.90300
C83         C  0.09782642  0.75000427  0.75000817     0.90300
C84         C  0.40364376  0.75000603  0.75000523     0.90500
C85         C  0.25068976  0.90019792  0.00000595     0.05700
C86         C  0.25067836  0.87929125  0.04249590    -0.10400
C87         C  0.25065169  0.83757853  0.04250615     0.03200
C88         C  0.25063450  0.81675668  0.00000657    -0.08900
C89         C  0.25066171  0.83757810  0.95750667     0.05700
C90         C  0.25068819  0.87929080  0.95751636    -0.08400
H91         H  0.25068595  0.89540775  0.07541693     0.11300
H92         H  0.25061463  0.78449116  0.00000683     0.08800
H93         H  0.25070301  0.89540699  0.92459502     0.08700
C94         C  0.25046167  0.09981334  0.00000529     0.05700
C95         C  0.25047471  0.12072033  0.95751553    -0.10400
C96         C  0.25050329  0.16243306  0.95750579     0.03200
C97         C  0.25052084  0.18325454  0.00000564    -0.08900
C98         C  0.25049199  0.16243278  0.04250531     0.05700
C99         C  0.25046342  0.12072006  0.04249519    -0.08400
H100        H  0.25046703  0.10460415  0.92459439     0.11300
H101        H  0.25054228  0.21552004  0.00000580     0.08800
H102        H  0.25044729  0.10460361  0.07541621     0.08700
C103        C  0.25045068  0.40019797  0.50000518     0.05700
C104        C  0.25046157  0.37929098  0.45751548    -0.10400
C105        C  0.25048772  0.33757827  0.45750567     0.03200
C106        C  0.25050504  0.31675673  0.50000553    -0.08900
C107        C  0.25047843  0.33757847  0.54250519     0.05700
C108        C  0.25045225  0.37929121  0.54249509    -0.08400
H109        H  0.25045452  0.39540728  0.42459422     0.11300
H110        H  0.25052515  0.28449124  0.50000568     0.08800
H111        H  0.25043833  0.39540762  0.57541611     0.08700
C112        C  0.25069919  0.59981329  0.50000616     0.05700
C113        C  0.25068886  0.62071995  0.54249610    -0.10400
C114        C  0.25066526  0.66243266  0.54250631     0.03200
C115        C  0.25064997  0.68325454  0.50000670    -0.08900
C116        C  0.25067613  0.66243312  0.45750682     0.05700
C117        C  0.25069967  0.62072042  0.45751655    -0.08400
H118        H  0.25069448  0.60460343  0.57541715     0.11300
H119        H  0.25063191  0.71552003  0.50000692     0.08800
H120        H  0.25071324  0.60460420  0.42459524     0.08700
C121        C  0.00069253  0.90019790  0.50000712     0.05700
C122        C  0.00069112  0.87929115  0.45751725    -0.10400
C123        C  0.50066358  0.83757846  0.45750711     0.03200
C124        C  0.50063539  0.81675669  0.50000678    -0.08900
C125        C  0.50065279  0.83757818  0.54250661     0.05700
C126        C  0.00068027  0.87929090  0.54249687    -0.08400
H127        H  0.00070669  0.89540761  0.42459615     0.11300
H128        H  0.50061469  0.78449120  0.50000667     0.08800
H129        H  0.00068785  0.89540711  0.57541806     0.08700
C130        C  0.00046412  0.09981333  0.50000624     0.05700
C131        C  0.00046641  0.12072034  0.54249598    -0.10400
C132        C  0.00049405  0.16243310  0.54250560     0.03200
C133        C  0.00052150  0.18325454  0.50000573    -0.08900
C134        C  0.00050334  0.16243274  0.45750610     0.05700
C135        C  0.00047573  0.12072004  0.45751633    -0.08400
H136        H  0.00045146  0.10460418  0.57541708     0.11300
H137        H  0.00054233  0.21552004  0.50000554     0.08800
H138        H  0.00046765  0.10460359  0.42459526     0.08700
C139        C  0.00045340  0.40019798  0.00000613     0.05700
C140        C  0.00046497  0.37929133  0.95751620    -0.10400
C141        C  0.00049038  0.33757862  0.95750596     0.03200
C142        C  0.00050617  0.31675676  0.00000559    -0.08900
C143        C  0.00047880  0.33757817  0.04250548     0.05700
C144        C  0.00045342  0.37929092  0.04249586    -0.08400
H145        H  0.00045896  0.39540785  0.92459517     0.11300
H146        H  0.00052561  0.28449126  0.00000538     0.08800
H147        H  0.00043895  0.39540704  0.07541698     0.08700
C148        C  0.00070112  0.59981329  0.00000728     0.05700
C149        C  0.00069075  0.62072024  0.04249702    -0.10400
C150        C  0.50066643  0.66243298  0.04250678     0.03200
C151        C  0.50065034  0.68325454  0.00000695    -0.08900
C152        C  0.50067644  0.66243281  0.95750729     0.05700
C153        C  0.00070081  0.62072008  0.95751739    -0.08400
H154        H  0.00069691  0.60460400  0.07541820     0.11300
H155        H  0.50063162  0.71552004  0.00000686     0.08800
H156        H  0.00071435  0.60460366  0.92459637     0.08700
O157        O  0.32358180  0.28048973  0.23445044    -0.71800
O158        O  0.17724184  0.28048785  0.23444977    -0.71900
O159        O  0.25041662  0.30384441  0.29499808    -0.71900
O160        O  0.25041189  0.25671545  0.17277471    -0.72000
O161        O  0.25042655  0.19616603  0.20501309    -0.71900
O162        O  0.25043541  0.24329502  0.32723649    -0.71900
O163        O  0.17725848  0.21952137  0.26556227    -0.71800
O164        O  0.32359841  0.21952206  0.26555982    -0.71900
Ni165      Ni  0.25041140  0.28252080  0.23291261     1.25400
Ni166      Ni  0.25042931  0.21748968  0.26709855     1.25400
C167        C  0.34751144  0.25000595  0.25000471     0.90400
C168        C  0.15332878  0.25000455  0.25000645     0.90300
C169        C  0.25043335  0.28126487  0.33103256     0.90300
C170        C  0.25042522  0.21874560  0.16897863     0.90500
O171        O  0.00043526  0.19616603  0.29499825    -0.71800
O172        O  0.00041721  0.24329484  0.17277473    -0.71900
O173        O  0.07359378  0.21952056  0.23445260    -0.71900
O174        O  0.42725382  0.21952270  0.23444801    -0.72000
O175        O  0.42724658  0.28048924  0.26556019    -0.71900
O176        O  0.07358650  0.28048829  0.26556169    -0.71900
O177        O  0.00040785  0.30384425  0.20501296    -0.71800
O178        O  0.00043027  0.25671544  0.32723648    -0.71900
Ni179      Ni  0.00042422  0.21748960  0.23291277     1.25400
Ni180      Ni  0.00041656  0.28252075  0.26709848     1.25400
C181        C  0.00044205  0.21874559  0.33103265     0.90400
C182        C  0.00041671  0.28126468  0.16897856     0.90300
C183        C  0.09751146  0.25000437  0.25000713     0.90300
C184        C  0.40332880  0.25000605  0.25000406     0.90500
C185        C  0.00043613  0.29924398  0.12341142    -0.10700
C186        C  0.00046059  0.31617997  0.08618200    -0.12200
C187        C  0.00047485  0.44308433  0.00000638    -0.15900
C188        C  0.00053261  0.47898210  0.00000665     0.08200
C189        C  0.00062113  0.52102914  0.00000705     0.10000
C190        C  0.00067901  0.55692692  0.00000734    -0.16800
C191        C  0.00049293  0.18383055  0.41382932    -0.10700
C192        C  0.00046928  0.20076635  0.37659977    -0.12200
C193        C  0.00048212  0.05692695  0.50000652    -0.15900
C194        C  0.00053619  0.02102915  0.50000686     0.08200
C195        C  0.00062035  0.97898207  0.50000718     0.10000
C196        C  0.00067458  0.94308427  0.50000724    -0.16800
C197        C  0.25045673  0.29924416  0.37659969    -0.10700
C198        C  0.25047823  0.31618014  0.41382911    -0.12200
C199        C  0.25067637  0.55692693  0.50000584    -0.15900
C200        C  0.25061805  0.52102915  0.50000546     0.08200
C201        C  0.25052918  0.47898211  0.50000514     0.10000
C202        C  0.25047149  0.44308434  0.50000506    -0.16800
C203        C  0.25044790  0.20076640  0.12341153    -0.10700
C204        C  0.25047381  0.18383061  0.08618202    -0.12200
C205        C  0.25047883  0.05692697  0.00000518    -0.15900
C206        C  0.25053261  0.02102918  0.00000530     0.08200
C207        C  0.25061663  0.97898210  0.00000553     0.10000
C208        C  0.25067113  0.94308430  0.00000565    -0.16800
C209        C  0.50068634  0.79924400  0.62341255    -0.10700
C210        C  0.50066282  0.81618000  0.58618313    -0.12200
C211        C  0.50071910  0.70076647  0.87660097    -0.10700
C212        C  0.50069449  0.68383070  0.91383054    -0.12200
C213        C  0.25070669  0.79924398  0.87660078    -0.10700
C214        C  0.25068038  0.81617995  0.91383018    -0.12200
C215        C  0.25069811  0.70076625  0.62341260    -0.10700
C216        C  0.25067568  0.68383044  0.58618308    -0.12200
C217        C  0.00047638  0.18383130  0.58618209    -0.10700
C218        C  0.00045067  0.20076729  0.62341150    -0.12200
C219        C  0.00048117  0.31618088  0.91382914    -0.10700
C220        C  0.00045958  0.29924508  0.87659962    -0.12200
C221        C  0.25043812  0.29924471  0.62341139    -0.10700
C222        C  0.25046169  0.31618058  0.58618190    -0.11000
C223        C  0.25049441  0.18383120  0.91382922    -0.10700
C224        C  0.25047158  0.20076726  0.87659982    -0.12200
C225        C  0.50070813  0.79924487  0.37660083    -0.10700
C226        C  0.50068199  0.81618063  0.41383038    -0.12200
C227        C  0.50069895  0.70076710  0.12341270    -0.10700
C228        C  0.50067675  0.68383108  0.08618332    -0.12200
C229        C  0.25066250  0.81618074  0.08618295    -0.10700
C230        C  0.25068666  0.79924485  0.12341246    -0.12200
C231        C  0.25072000  0.70076734  0.37660092    -0.10700
C232        C  0.25069508  0.68383133  0.41383033    -0.12200
O233        O  0.75073933  0.75671647  0.32723761    -0.71800
O234        O  0.75072090  0.80384517  0.20501403    -0.71900
O235        O  0.67756260  0.78049072  0.26555990    -0.71900
O236        O  0.82390255  0.78048863  0.26556414    -0.72000
O237        O  0.82390977  0.71952200  0.23445221    -0.71900
O238        O  0.67756983  0.71952301  0.23445078    -0.71900
O239        O  0.75072596  0.74329574  0.17277587    -0.71800
O240        O  0.75074841  0.69616704  0.29499942    -0.71900
Ni241      Ni  0.75073216  0.78252168  0.26709955     1.25400
Ni242      Ni  0.75073976  0.71749052  0.23291394     1.25400
C243        C  0.75073964  0.71874662  0.33103381     0.90400
C244        C  0.75071408  0.78126559  0.16897964     0.90300
C245        C  0.65364489  0.75000692  0.25000536     0.90300
C246        C  0.84782754  0.75000523  0.25000818     0.90500
O247        O  0.50073971  0.69616684  0.20501424    -0.71800
O248        O  0.00074440  0.74329579  0.32723758    -0.71900
O249        O  0.92757448  0.71952154  0.26556170    -0.71900
O250        O  0.57391444  0.71952342  0.26556245    -0.72000
O251        O  0.57389780  0.78048992  0.23445014    -0.71900
O252        O  0.92755787  0.78048927  0.23445257    -0.71900
O253        O  0.50072977  0.80384518  0.29499925    -0.71800
O254        O  0.00072067  0.75671623  0.17277590    -0.71900
Ni255      Ni  0.50074489  0.71749048  0.26709963     1.25400
Ni256      Ni  0.50072695  0.78252154  0.23291384     1.25400
C257        C  0.50072277  0.71874639  0.16897979     0.90400
C258        C  0.50073104  0.78126563  0.33103370     0.90300
C259        C  0.90364485  0.75000536  0.25000753     0.90300
C260        C  0.59782752  0.75000677  0.25000596     0.90500
O261        O  0.82359664  0.21952147  0.73445246    -0.71800
O262        O  0.67725667  0.21952360  0.73444800    -0.71900
O263        O  0.75041987  0.24329570  0.67277476    -0.71900
O264        O  0.75043817  0.19616692  0.79499826    -0.72000
O265        O  0.75043326  0.25671635  0.82723641    -0.71900
O266        O  0.75041088  0.30384516  0.70501289    -0.71900
O267        O  0.67724960  0.28049016  0.76556012    -0.71800
O268        O  0.82358949  0.28048919  0.76556156    -0.71900
Ni269      Ni  0.75042706  0.21749049  0.73291275     1.25400
Ni270      Ni  0.75041958  0.28252165  0.76709838     1.25400
C271        C  0.84751440  0.25000525  0.75000704     0.90400
C272        C  0.65333173  0.25000698  0.75000408     0.90300
C273        C  0.75041937  0.28126553  0.66897853     0.90300
C274        C  0.75044487  0.21874650  0.83103264     0.90500
O275        O  0.50042941  0.19616689  0.70501316    -0.71800
O276        O  0.50043850  0.24329595  0.82723648    -0.71900
O277        O  0.92726145  0.21952224  0.76556230    -0.71900
O278        O  0.57360139  0.21952291  0.76555981    -0.72000
O279        O  0.57358472  0.28049065  0.73445064    -0.71900
O280        O  0.92724481  0.28048878  0.73444997    -0.71900
O281        O  0.50041945  0.30384535  0.79499807    -0.71800
O282        O  0.50041475  0.25671628  0.67277477    -0.71900
Ni283      Ni  0.50043229  0.21749055  0.76709859     1.25400
Ni284      Ni  0.50041430  0.28252168  0.73291271     1.25400
C285        C  0.50042806  0.21874644  0.66897868     0.90400
C286        C  0.50043626  0.28126580  0.83103254     0.90300
C287        C  0.90333174  0.25000541  0.75000648     0.90300
C288        C  0.59751439  0.25000685  0.75000482     0.90500
O289        O  0.75071992  0.75671535  0.67277580    -0.71800
O290        O  0.75072869  0.80384418  0.79499924    -0.71900
O291        O  0.82389676  0.78048902  0.73445004    -0.71900
O292        O  0.67755684  0.78048828  0.73445247    -0.72000
O293        O  0.67757336  0.71952064  0.76556187    -0.71900
O294        O  0.82391332  0.71952257  0.76556256    -0.71900
O295        O  0.75074326  0.74329482  0.82723769    -0.71800
O296        O  0.75073861  0.69616599  0.70501422    -0.71900
Ni297      Ni  0.75072596  0.78252062  0.73291377     1.25400
Ni298      Ni  0.75074378  0.71748957  0.76709972     1.25400
C299        C  0.75072193  0.71874552  0.66897972     0.90400
C300        C  0.75072984  0.78126467  0.83103373     0.90300
C301        C  0.84782643  0.75000587  0.75000591     0.90300
C302        C  0.65364377  0.75000439  0.75000756     0.90500
O303        O  0.00074724  0.69616616  0.79499938    -0.71800
O304        O  0.50072506  0.74329486  0.67277580    -0.71900
O305        O  0.57390865  0.71952106  0.73445205    -0.71900
O306        O  0.92756871  0.71952213  0.73445061    -0.72000
O307        O  0.92756147  0.78048985  0.76555973    -0.71900
O308        O  0.57390142  0.78048759  0.76556429    -0.71900
O309        O  0.00072005  0.80384426  0.70501406    -0.71800
O310        O  0.50073812  0.75671557  0.82723761    -0.71900
Ni311      Ni  0.50073865  0.71748962  0.73291383     1.25400
Ni312      Ni  0.50073106  0.78252075  0.76709955     1.25400
C313        C  0.50073854  0.71874573  0.83103379     0.90400
C314        C  0.50071335  0.78126470  0.66897965     0.90300
C315        C  0.59782642  0.75000427  0.75000817     0.90300
C316        C  0.90364377  0.75000603  0.75000523     0.90500
C317        C  0.75068977  0.90019792  0.00000595     0.05700
C318        C  0.75067836  0.87929125  0.04249590    -0.10400
C319        C  0.75065169  0.83757853  0.04250615     0.03200
C320        C  0.75063450  0.81675668  0.00000657    -0.08900
C321        C  0.75066172  0.83757810  0.95750667     0.05700
C322        C  0.75068820  0.87929080  0.95751636    -0.08400
H323        H  0.75068595  0.89540775  0.07541693     0.11300
H324        H  0.75061463  0.78449116  0.00000683     0.08800
H325        H  0.75070301  0.89540699  0.92459502     0.08700
C326        C  0.75046168  0.09981334  0.00000529     0.05700
C327        C  0.75047472  0.12072033  0.95751553    -0.10400
C328        C  0.75050330  0.16243306  0.95750579     0.03200
C329        C  0.75052084  0.18325454  0.00000564    -0.08900
C330        C  0.75049200  0.16243278  0.04250531     0.05700
C331        C  0.75046343  0.12072006  0.04249519    -0.08400
H332        H  0.75046703  0.10460415  0.92459439     0.11300
H333        H  0.75054229  0.21552004  0.00000580     0.08800
H334        H  0.75044729  0.10460361  0.07541621     0.08700
C335        C  0.75045062  0.40019797  0.50000518     0.05700
C336        C  0.75046154  0.37929098  0.45751548    -0.10400
C337        C  0.75048772  0.33757827  0.45750567     0.03200
C338        C  0.75050506  0.31675673  0.50000553    -0.08900
C339        C  0.75047837  0.33757847  0.54250519     0.05700
C340        C  0.75045203  0.37929121  0.54249509    -0.08400
H341        H  0.75045446  0.39540728  0.42459422     0.11300
H342        H  0.75052522  0.28449124  0.50000568     0.08800
H343        H  0.75043798  0.39540762  0.57541611     0.08700
C344        C  0.75069921  0.59981329  0.50000616     0.05700
C345        C  0.75068887  0.62071995  0.54249610    -0.10400
C346        C  0.75066527  0.66243266  0.54250631     0.03200
C347        C  0.75064998  0.68325454  0.50000670    -0.08900
C348        C  0.75067614  0.66243312  0.45750682     0.05700
C349        C  0.75069968  0.62072042  0.45751655    -0.08400
H350        H  0.75069448  0.60460343  0.57541715     0.11300
H351        H  0.75063192  0.71552003  0.50000692     0.08800
H352        H  0.75071324  0.60460420  0.42459524     0.08700
C353        C  0.50069253  0.90019790  0.50000712     0.05700
C354        C  0.50069112  0.87929115  0.45751725    -0.10400
C355        C  0.00066357  0.83757846  0.45750711     0.03200
C356        C  0.00063539  0.81675669  0.50000678    -0.08900
C357        C  0.00065278  0.83757818  0.54250661     0.05700
C358        C  0.50068027  0.87929090  0.54249687    -0.08400
H359        H  0.50070670  0.89540761  0.42459615     0.11300
H360        H  0.00061468  0.78449120  0.50000667     0.08800
H361        H  0.50068786  0.89540711  0.57541806     0.08700
C362        C  0.50046406  0.09981333  0.50000623     0.05700
C363        C  0.50046641  0.12072034  0.54249597    -0.10400
C364        C  0.50049406  0.16243308  0.54250559     0.03200
C365        C  0.50052151  0.18325454  0.50000573    -0.08900
C366        C  0.50050335  0.16243274  0.45750610     0.05700
C367        C  0.50047573  0.12072004  0.45751632    -0.08400
H368        H  0.50045144  0.10460418  0.57541707     0.11300
H369        H  0.50054234  0.21552004  0.50000554     0.08800
H370        H  0.50046763  0.10460359  0.42459526     0.08700
C371        C  0.50045340  0.40019798  0.00000613     0.05700
C372        C  0.50046498  0.37929133  0.95751620    -0.10400
C373        C  0.50049039  0.33757862  0.95750596     0.03200
C374        C  0.50050618  0.31675676  0.00000559    -0.08900
C375        C  0.50047880  0.33757817  0.04250548     0.05700
C376        C  0.50045343  0.37929092  0.04249586    -0.08400
H377        H  0.50045896  0.39540785  0.92459517     0.11300
H378        H  0.50052562  0.28449126  0.00000538     0.08800
H379        H  0.50043895  0.39540704  0.07541698     0.08700
C380        C  0.50070112  0.59981329  0.00000728     0.05700
C381        C  0.50069076  0.62072024  0.04249702    -0.10400
C382        C  0.00066643  0.66243298  0.04250678     0.03200
C383        C  0.00065033  0.68325454  0.00000695    -0.08900
C384        C  0.00067643  0.66243281  0.95750729     0.05700
C385        C  0.50070082  0.62072008  0.95751739    -0.08400
H386        H  0.50069691  0.60460400  0.07541820     0.11300
H387        H  0.00063162  0.71552004  0.00000686     0.08800
H388        H  0.50071436  0.60460366  0.92459637     0.08700
O389        O  0.82358182  0.28048974  0.23445043    -0.71800
O390        O  0.67724183  0.28048786  0.23444976    -0.71900
O391        O  0.75041663  0.30384443  0.29499808    -0.71900
O392        O  0.75041189  0.25671546  0.17277470    -0.72000
O393        O  0.75042656  0.19616609  0.20501311    -0.71900
O394        O  0.75043541  0.24329506  0.32723649    -0.71900
O395        O  0.67725850  0.21952142  0.26556228    -0.71800
O396        O  0.82359841  0.21952211  0.26555984    -0.71900
Ni397      Ni  0.75041141  0.28252082  0.23291260     1.25400
Ni398      Ni  0.75042932  0.21748977  0.26709855     1.25400
C399        C  0.84751145  0.25000597  0.25000470     0.90400
C400        C  0.65332878  0.25000456  0.25000644     0.90300
C401        C  0.75043336  0.28126490  0.33103257     0.90300
C402        C  0.75042523  0.21874562  0.16897864     0.90500
O403        O  0.50043527  0.19616603  0.29499825    -0.71800
O404        O  0.50041722  0.24329484  0.17277473    -0.71900
O405        O  0.57359379  0.21952055  0.23445260    -0.71900
O406        O  0.92725382  0.21952270  0.23444801    -0.72000
O407        O  0.92724658  0.28048924  0.26556019    -0.71900
O408        O  0.57358651  0.28048829  0.26556169    -0.71900
O409        O  0.50040786  0.30384425  0.20501296    -0.71800
O410        O  0.50043027  0.25671544  0.32723648    -0.71900
Ni411      Ni  0.50042422  0.21748960  0.23291277     1.25400
Ni412      Ni  0.50041656  0.28252075  0.26709848     1.25400
C413        C  0.50044206  0.21874559  0.33103265     0.90400
C414        C  0.50041672  0.28126468  0.16897856     0.90300
C415        C  0.59751146  0.25000437  0.25000713     0.90300
C416        C  0.90332880  0.25000606  0.25000406     0.90500
C417        C  0.50043614  0.29924398  0.12341142    -0.10700
C418        C  0.50046059  0.31617997  0.08618200    -0.12200
C419        C  0.50047486  0.44308433  0.00000638    -0.15900
C420        C  0.50053261  0.47898210  0.00000665     0.08200
C421        C  0.50062114  0.52102914  0.00000705     0.10000
C422        C  0.50067901  0.55692692  0.00000734    -0.16800
C423        C  0.50049294  0.18383055  0.41382932    -0.10700
C424        C  0.50046928  0.20076635  0.37659977    -0.12200
C425        C  0.50048188  0.05692695  0.50000652    -0.15900
C426        C  0.50053610  0.02102915  0.50000686     0.08200
C427        C  0.50062037  0.97898207  0.50000718     0.10000
C428        C  0.50067459  0.94308427  0.50000724    -0.16800
C429        C  0.75045673  0.29924417  0.37659970    -0.10700
C430        C  0.75047824  0.31618014  0.41382911    -0.12200
C431        C  0.75067628  0.55692693  0.50000584    -0.15900
C432        C  0.75061781  0.52102915  0.50000546     0.08200
C433        C  0.75052910  0.47898211  0.50000514     0.10000
C434        C  0.75047150  0.44308434  0.50000506    -0.16800
C435        C  0.75044791  0.20076639  0.12341153    -0.10700
C436        C  0.75047382  0.18383061  0.08618202    -0.12200
C437        C  0.75047884  0.05692697  0.00000518    -0.15900
C438        C  0.75053262  0.02102918  0.00000530     0.08200
C439        C  0.75061663  0.97898210  0.00000553     0.10000
C440        C  0.75067113  0.94308430  0.00000565    -0.16800
C441        C  0.00068633  0.79924400  0.62341255    -0.10700
C442        C  0.00066282  0.81618000  0.58618313    -0.12200
C443        C  0.00071909  0.70076647  0.87660097    -0.10700
C444        C  0.00069448  0.68383070  0.91383054    -0.12200
C445        C  0.75070669  0.79924398  0.87660078    -0.10700
C446        C  0.75068038  0.81617995  0.91383018    -0.12200
C447        C  0.75069812  0.70076625  0.62341260    -0.10700
C448        C  0.75067569  0.68383044  0.58618308    -0.12200
C449        C  0.50047639  0.18383125  0.58618210    -0.10700
C450        C  0.50045068  0.20076717  0.62341154    -0.12200
C451        C  0.50048118  0.31618088  0.91382914    -0.10700
C452        C  0.50045958  0.29924508  0.87659962    -0.12200
C453        C  0.75043813  0.29924471  0.62341139    -0.10700
C454        C  0.75046169  0.31618058  0.58618190    -0.11000
C455        C  0.75049441  0.18383120  0.91382922    -0.10700
C456        C  0.75047159  0.20076726  0.87659982    -0.12200
C457        C  0.00070813  0.79924487  0.37660083    -0.10700
C458        C  0.00068198  0.81618063  0.41383038    -0.12200
C459        C  0.00069894  0.70076710  0.12341270    -0.10700
C460        C  0.00067674  0.68383108  0.08618332    -0.12200
C461        C  0.75066250  0.81618074  0.08618295    -0.10700
C462        C  0.75068666  0.79924485  0.12341246    -0.12200
C463        C  0.75072000  0.70076734  0.37660092    -0.10700
C464        C  0.75069509  0.68383133  0.41383033    -0.12200
loop_ 
_geom_bond_atom_site_label_1 
_geom_bond_atom_site_label_2 
_geom_bond_distance 
_geom_bond_site_symmetry_2 
_ccdc_geom_bond_type 
O1           Ni9   1.923       .  S
O1           C11   1.281       .  A
O2           Ni9   1.911       .  S
O2           C12   1.278       .  A
O3           Ni9   1.917       .  S
O3           C13   1.280       .  A
O4           Ni9   1.917       .  S
O4           C14   1.280       .  A
O5          Ni10   1.917       .  S
O5           C14   1.280       .  A
O6          Ni10   1.917       .  S
O6           C13   1.280       .  A
O7          Ni10   1.923       .  S
O7           C12   1.281       .  A
O8          Ni10   1.911       .  S
O8           C11   1.278       .  A
Ni9         Ni10   2.394       .  S
C11         C231   1.434       .  S
C12         C230   1.434       .  S
C13          C28   1.461       .  S
C14          C27   1.461       .  S
O15         Ni23   1.911       .  S
O15          C25   1.278       .  A
O16        Ni255   1.923       .  S
O16         C258   1.281       .  A
O17        Ni255   1.917       .  S
O17          C27   1.280       .  A
O18         Ni23   1.917       .  S
O18          C28   1.280       .  A
O19         Ni24   1.917       .  S
O19          C28   1.280       .  A
O20        Ni256   1.917       .  S
O20          C27   1.280       .  A
O21         Ni24   1.911       .  S
O21          C26   1.278       .  A
O22        Ni256   1.923       .  S
O22         C257   1.281       .  A
Ni23        O248   1.923       .  S
Ni23        O249   1.917   1_455  S
Ni23        Ni24   2.394       .  S
Ni24        O252   1.917   1_455  S
Ni24        O254   1.923       .  S
C25         O254   1.281       .  A
C25         C459   1.434       .  S
C26         O248   1.281       .  A
C26         C457   1.434       .  S
O29         Ni37   1.917       .  S
O29          C39   1.280       .  A
O30         Ni37   1.917       .  S
O30          C40   1.280       .  A
O31         Ni37   1.923       .  S
O31          C41   1.281       .  A
O32         Ni37   1.911       .  S
O32          C42   1.278       .  A
O33         Ni38   1.923       .  S
O33          C42   1.281       .  A
O34         Ni38   1.911       .  S
O34          C41   1.278       .  A
O35         Ni38   1.917       .  S
O35          C40   1.280       .  A
O36         Ni38   1.917       .  S
O36          C39   1.280       .  A
Ni37        Ni38   2.394       .  S
C39          C55   1.461       .  S
C40          C56   1.461       .  S
C41         C221   1.434       .  S
C42         C224   1.434       .  S
O43         Ni51   1.911       .  S
O43          C53   1.278       .  A
O44         Ni51   1.923       .  S
O44          C54   1.281       .  A
O45        Ni283   1.917       .  S
O45          C55   1.280       .  A
O46         Ni51   1.917       .  S
O46          C56   1.280       .  A
O47         Ni52   1.917       .  S
O47          C56   1.280       .  A
O48        Ni284   1.917       .  S
O48          C55   1.280       .  A
O49         Ni52   1.911       .  S
O49          C54   1.278       .  A
O50         Ni52   1.923       .  S
O50          C53   1.281       .  A
Ni51        O277   1.917   1_455  S
Ni51        Ni52   2.394       .  S
Ni52        O280   1.917   1_455  S
C53         C218   1.434       .  S
C54         C220   1.434       .  S
O57         Ni65   1.923       .  S
O57          C67   1.281       .  A
O58         Ni65   1.911       .  S
O58          C68   1.278       .  A
O59         Ni65   1.917       .  S
O59          C69   1.280       .  A
O60         Ni65   1.917       .  S
O60          C70   1.280       .  A
O61         Ni66   1.917       .  S
O61          C70   1.280       .  A
O62         Ni66   1.917       .  S
O62          C69   1.280       .  A
O63         Ni66   1.923       .  S
O63          C68   1.281       .  A
O64         Ni66   1.911       .  S
O64          C67   1.278       .  A
Ni65        Ni66   2.394       .  S
C67         C215   1.434       .  S
C68         C213   1.434       .  S
C69          C84   1.461       .  S
C70          C83   1.461       .  S
O71        Ni311   1.911       .  S
O71         C313   1.278       .  A
O72         Ni79   1.923       .  S
O72          C82   1.281       .  A
O73         Ni79   1.917       .  S
O73          C83   1.280       .  A
O74        Ni311   1.917       .  S
O74          C84   1.280       .  A
O75        Ni312   1.917       .  S
O75          C84   1.280       .  A
O76         Ni80   1.917       .  S
O76          C83   1.280       .  A
O77        Ni312   1.911       .  S
O77         C314   1.278       .  A
O78         Ni80   1.923       .  S
O78          C81   1.281       .  A
Ni79        O303   1.911       .  S
Ni79        O306   1.917   1_455  S
Ni79        Ni80   2.394       .  S
Ni80        O307   1.917   1_455  S
Ni80        O309   1.911       .  S
C81         O303   1.278       .  A
C81         C443   1.434       .  S
C82         O309   1.278       .  A
C82         C441   1.434       .  S
C85         C208   1.442       .  S
C85          C86   1.402       .  A
C85          C90   1.402   1_554  A
C86          C87   1.402       .  A
C86          H91   1.085       .  S
C87         C229   1.439       .  S
C87          C88   1.400       .  A
C88          C89   1.400   1_554  A
C88          H92   1.085       .  S
C89         C214   1.439       .  S
C89          C90   1.402       .  A
C90          H93   1.085       .  S
C94         C205   1.442       .  S
C94          C95   1.402   1_554  A
C94          C99   1.402       .  A
C95          C96   1.402       .  A
C95         H100   1.085       .  S
C96         C223   1.439       .  S
C96          C97   1.400   1_556  A
C97          C98   1.400       .  A
C97         H101   1.085       .  S
C98         C204   1.439       .  S
C98          C99   1.402       .  A
C99         H102   1.085       .  S
C103        C202   1.442       .  S
C103        C104   1.402       .  A
C103        C108   1.402       .  A
C104        C105   1.402       .  A
C104        H109   1.085       .  S
C105        C198   1.439       .  S
C105        C106   1.400       .  A
C106        C107   1.400       .  A
C106        H110   1.085       .  S
C107        C222   1.439       .  S
C107        C108   1.402       .  A
C108        H111   1.085       .  S
C112        C199   1.442       .  S
C112        C113   1.402       .  A
C112        C117   1.402       .  A
C113        C114   1.402       .  A
C113        H118   1.085       .  S
C114        C216   1.439       .  S
C114        C115   1.400       .  A
C115        C116   1.400       .  A
C115        H119   1.085       .  S
C116        C232   1.439       .  S
C116        C117   1.402       .  A
C117        H120   1.085       .  S
C121        C196   1.442       .  S
C121        C122   1.402       .  A
C121        C126   1.402       .  A
C122        C355   1.402       .  A
C122        H127   1.085       .  S
C123        C226   1.439       .  S
C123        C124   1.400       .  A
C123        C354   1.402       .  A
C124        C125   1.400       .  A
C124        H128   1.085       .  S
C125        C210   1.439       .  S
C125        C358   1.402       .  A
C126        C357   1.402       .  A
C126        H129   1.085       .  S
C130        C193   1.442       .  S
C130        C131   1.402       .  A
C130        C135   1.402       .  A
C131        C132   1.402       .  A
C131        H136   1.085       .  S
C132        C217   1.439       .  S
C132        C133   1.400       .  A
C133        C134   1.400       .  A
C133        H137   1.085       .  S
C134        C191   1.439       .  S
C134        C135   1.402       .  A
C135        H138   1.085       .  S
C139        C187   1.442       .  S
C139        C140   1.402   1_554  A
C139        C144   1.402       .  A
C140        C141   1.402       .  A
C140        H145   1.085       .  S
C141        C219   1.439       .  S
C141        C142   1.400   1_556  A
C142        C143   1.400       .  A
C142        H146   1.085       .  S
C143        C186   1.439       .  S
C143        C144   1.402       .  A
C144        H147   1.085       .  S
C148        C190   1.442       .  S
C148        C149   1.402       .  A
C148        C153   1.402   1_554  A
C149        C382   1.402       .  A
C149        H154   1.085       .  S
C150        C228   1.439       .  S
C150        C151   1.400       .  A
C150        C381   1.402       .  A
C151        C152   1.400   1_554  A
C151        H155   1.085       .  S
C152        C212   1.439       .  S
C152        C385   1.402       .  A
C153        C384   1.402       .  A
C153        H156   1.085       .  S
O157       Ni165   1.917       .  S
O157        C167   1.280       .  A
O158       Ni165   1.917       .  S
O158        C168   1.280       .  A
O159       Ni165   1.911       .  S
O159        C169   1.278       .  A
O160       Ni165   1.923       .  S
O160        C170   1.281       .  A
O161       Ni166   1.911       .  S
O161        C170   1.278       .  A
O162       Ni166   1.923       .  S
O162        C169   1.281       .  A
O163       Ni166   1.917       .  S
O163        C168   1.280       .  A
O164       Ni166   1.917       .  S
O164        C167   1.280       .  A
Ni165      Ni166   2.394       .  S
C167        C184   1.461       .  S
C168        C183   1.461       .  S
C169        C197   1.434       .  S
C170        C203   1.434       .  S
O171       Ni179   1.911       .  S
O171        C181   1.278       .  A
O172       Ni179   1.923       .  S
O172        C182   1.281       .  A
O173       Ni179   1.917       .  S
O173        C183   1.280       .  A
O174       Ni411   1.917       .  S
O174        C184   1.280       .  A
O175       Ni412   1.917       .  S
O175        C184   1.280       .  A
O176       Ni180   1.917       .  S
O176        C183   1.280       .  A
O177       Ni180   1.911       .  S
O177        C182   1.278       .  A
O178       Ni180   1.923       .  S
O178        C181   1.281       .  A
Ni179       O406   1.917   1_455  S
Ni179      Ni180   2.394       .  S
Ni180       O407   1.917   1_455  S
C181        C192   1.434       .  S
C182        C185   1.434       .  S
C185        C186   1.205       .  T
C187        C188   1.207       .  T
C188        C189   1.413       .  S
C189        C190   1.207       .  T
C191        C192   1.205       .  T
C193        C194   1.207       .  T
C194        C195   1.413   1_545  S
C195        C196   1.207       .  T
C197        C198   1.205       .  T
C199        C200   1.207       .  T
C200        C201   1.413       .  S
C201        C202   1.207       .  T
C203        C204   1.205       .  T
C205        C206   1.207       .  T
C206        C207   1.413   1_545  S
C207        C208   1.207       .  T
C209        C314   1.434       .  S
C209        C210   1.205       .  T
C211        C313   1.434       .  S
C211        C212   1.205       .  T
C213        C214   1.205       .  T
C215        C216   1.205       .  T
C217        C218   1.205       .  T
C219        C220   1.205       .  T
C221        C222   1.205       .  T
C223        C224   1.205       .  T
C225        C258   1.434       .  S
C225        C226   1.205       .  T
C227        C257   1.434       .  S
C227        C228   1.205       .  T
C229        C230   1.205       .  T
C231        C232   1.205       .  T
O233       Ni241   1.923       .  S
O233        C243   1.281       .  A
O234       Ni241   1.911       .  S
O234        C244   1.278       .  A
O235       Ni241   1.917       .  S
O235        C245   1.280       .  A
O236       Ni241   1.917       .  S
O236        C246   1.280       .  A
O237       Ni242   1.917       .  S
O237        C246   1.280       .  A
O238       Ni242   1.917       .  S
O238        C245   1.280       .  A
O239       Ni242   1.923       .  S
O239        C244   1.281       .  A
O240       Ni242   1.911       .  S
O240        C243   1.278       .  A
Ni241      Ni242   2.394       .  S
C243        C463   1.434       .  S
C244        C462   1.434       .  S
C245        C260   1.461       .  S
C246        C259   1.461       .  S
O247       Ni255   1.911       .  S
O247        C257   1.278       .  A
O249        C259   1.280       .  A
O250       Ni255   1.917       .  S
O250        C260   1.280       .  A
O251       Ni256   1.917       .  S
O251        C260   1.280       .  A
O252        C259   1.280       .  A
O253       Ni256   1.911       .  S
O253        C258   1.278       .  A
Ni255      Ni256   2.394       .  S
O261       Ni269   1.917       .  S
O261        C271   1.280       .  A
O262       Ni269   1.917       .  S
O262        C272   1.280       .  A
O263       Ni269   1.923       .  S
O263        C273   1.281       .  A
O264       Ni269   1.911       .  S
O264        C274   1.278       .  A
O265       Ni270   1.923       .  S
O265        C274   1.281       .  A
O266       Ni270   1.911       .  S
O266        C273   1.278       .  A
O267       Ni270   1.917       .  S
O267        C272   1.280       .  A
O268       Ni270   1.917       .  S
O268        C271   1.280       .  A
Ni269      Ni270   2.394       .  S
C271        C287   1.461       .  S
C272        C288   1.461       .  S
C273        C453   1.434       .  S
C274        C456   1.434       .  S
O275       Ni283   1.911       .  S
O275        C285   1.278       .  A
O276       Ni283   1.923       .  S
O276        C286   1.281       .  A
O277        C287   1.280       .  A
O278       Ni283   1.917       .  S
O278        C288   1.280       .  A
O279       Ni284   1.917       .  S
O279        C288   1.280       .  A
O280        C287   1.280       .  A
O281       Ni284   1.911       .  S
O281        C286   1.278       .  A
O282       Ni284   1.923       .  S
O282        C285   1.281       .  A
Ni283      Ni284   2.394       .  S
C285        C450   1.434       .  S
C286        C452   1.434       .  S
O289       Ni297   1.923       .  S
O289        C299   1.281       .  A
O290       Ni297   1.911       .  S
O290        C300   1.278       .  A
O291       Ni297   1.917       .  S
O291        C301   1.280       .  A
O292       Ni297   1.917       .  S
O292        C302   1.280       .  A
O293       Ni298   1.917       .  S
O293        C302   1.280       .  A
O294       Ni298   1.917       .  S
O294        C301   1.280       .  A
O295       Ni298   1.923       .  S
O295        C300   1.281       .  A
O296       Ni298   1.911       .  S
O296        C299   1.278       .  A
Ni297      Ni298   2.394       .  S
C299        C447   1.434       .  S
C300        C445   1.434       .  S
C301        C316   1.461       .  S
C302        C315   1.461       .  S
O304       Ni311   1.923       .  S
O304        C314   1.281       .  A
O305       Ni311   1.917       .  S
O305        C315   1.280       .  A
O306        C316   1.280       .  A
O307        C316   1.280       .  A
O308       Ni312   1.917       .  S
O308        C315   1.280       .  A
O310       Ni312   1.923       .  S
O310        C313   1.281       .  A
Ni311      Ni312   2.394       .  S
C317        C440   1.442       .  S
C317        C318   1.402       .  A
C317        C322   1.402   1_554  A
C318        C319   1.402       .  A
C318        H323   1.085       .  S
C319        C461   1.439       .  S
C319        C320   1.400       .  A
C320        C321   1.400   1_554  A
C320        H324   1.085       .  S
C321        C446   1.439       .  S
C321        C322   1.402       .  A
C322        H325   1.085       .  S
C326        C437   1.442       .  S
C326        C327   1.402   1_554  A
C326        C331   1.402       .  A
C327        C328   1.402       .  A
C327        H332   1.085       .  S
C328        C455   1.439       .  S
C328        C329   1.400   1_556  A
C329        C330   1.400       .  A
C329        H333   1.085       .  S
C330        C436   1.439       .  S
C330        C331   1.402       .  A
C331        H334   1.085       .  S
C335        C434   1.442       .  S
C335        C336   1.402       .  A
C335        C340   1.402       .  A
C336        C337   1.402       .  A
C336        H341   1.085       .  S
C337        C430   1.439       .  S
C337        C338   1.400       .  A
C338        C339   1.400       .  A
C338        H342   1.085       .  S
C339        C454   1.439       .  S
C339        C340   1.402       .  A
C340        H343   1.085       .  S
C344        C431   1.442       .  S
C344        C345   1.402       .  A
C344        C349   1.402       .  A
C345        C346   1.402       .  A
C345        H350   1.085       .  S
C346        C448   1.439       .  S
C346        C347   1.400       .  A
C347        C348   1.400       .  A
C347        H351   1.085       .  S
C348        C464   1.439       .  S
C348        C349   1.402       .  A
C349        H352   1.085       .  S
C353        C428   1.442       .  S
C353        C354   1.402       .  A
C353        C358   1.402       .  A
C354        H359   1.085       .  S
C355        C458   1.439       .  S
C355        C356   1.400       .  A
C356        C357   1.400       .  A
C356        H360   1.085       .  S
C357        C442   1.439       .  S
C358        H361   1.085       .  S
C362        C425   1.442       .  S
C362        C363   1.402       .  A
C362        C367   1.402       .  A
C363        C364   1.402       .  A
C363        H368   1.085       .  S
C364        C449   1.439       .  S
C364        C365   1.400       .  A
C365        C366   1.400       .  A
C365        H369   1.085       .  S
C366        C423   1.439       .  S
C366        C367   1.402       .  A
C367        H370   1.085       .  S
C371        C419   1.442       .  S
C371        C372   1.402   1_554  A
C371        C376   1.402       .  A
C372        C373   1.402       .  A
C372        H377   1.085       .  S
C373        C451   1.439       .  S
C373        C374   1.400   1_556  A
C374        C375   1.400       .  A
C374        H378   1.085       .  S
C375        C418   1.439       .  S
C375        C376   1.402       .  A
C376        H379   1.085       .  S
C380        C422   1.442       .  S
C380        C381   1.402       .  A
C380        C385   1.402   1_554  A
C381        H386   1.085       .  S
C382        C460   1.439       .  S
C382        C383   1.400       .  A
C383        C384   1.400   1_554  A
C383        H387   1.085       .  S
C384        C444   1.439       .  S
C385        H388   1.085       .  S
O389       Ni397   1.917       .  S
O389        C399   1.280       .  A
O390       Ni397   1.917       .  S
O390        C400   1.280       .  A
O391       Ni397   1.911       .  S
O391        C401   1.278       .  A
O392       Ni397   1.923       .  S
O392        C402   1.281       .  A
O393       Ni398   1.911       .  S
O393        C402   1.278       .  A
O394       Ni398   1.923       .  S
O394        C401   1.281       .  A
O395       Ni398   1.917       .  S
O395        C400   1.280       .  A
O396       Ni398   1.917       .  S
O396        C399   1.280       .  A
Ni397      Ni398   2.394       .  S
C399        C416   1.461       .  S
C400        C415   1.461       .  S
C401        C429   1.434       .  S
C402        C435   1.434       .  S
O403       Ni411   1.911       .  S
O403        C413   1.278       .  A
O404       Ni411   1.923       .  S
O404        C414   1.281       .  A
O405       Ni411   1.917       .  S
O405        C415   1.280       .  A
O406        C416   1.280       .  A
O407        C416   1.280       .  A
O408       Ni412   1.917       .  S
O408        C415   1.280       .  A
O409       Ni412   1.911       .  S
O409        C414   1.278       .  A
O410       Ni412   1.923       .  S
O410        C413   1.281       .  A
Ni411      Ni412   2.394       .  S
C413        C424   1.434       .  S
C414        C417   1.434       .  S
C417        C418   1.205       .  T
C419        C420   1.207       .  T
C420        C421   1.413       .  S
C421        C422   1.207       .  T
C423        C424   1.205       .  T
C425        C426   1.207       .  T
C426        C427   1.413   1_545  S
C427        C428   1.207       .  T
C429        C430   1.205       .  T
C431        C432   1.207       .  T
C432        C433   1.413       .  S
C433        C434   1.207       .  T
C435        C436   1.205       .  T
C437        C438   1.207       .  T
C438        C439   1.413   1_545  S
C439        C440   1.207       .  T
C441        C442   1.205       .  T
C443        C444   1.205       .  T
C445        C446   1.205       .  T
C447        C448   1.205       .  T
C449        C450   1.205       .  T
C451        C452   1.205       .  T
C453        C454   1.205       .  T
C455        C456   1.205       .  T
C457        C458   1.205       .  T
C459        C460   1.205       .  T
C461        C462   1.205       .  T
C463        C464   1.205       .  T
