geometry optimzed in LAMMPS
_audit_creation_date              2020-12-01 
_audit_creation_method            'lammps2cif' 
_symmetry_space_group_name_H-M    'P1' 
_symmetry_Int_Tables_number       1 
_symmetry_cell_setting            triclinic 
loop_ 
_symmetry_equiv_pos_as_xyz 
  x,y,z 
_cell_length_a                    45.04312412 
_cell_length_b                    45.438412087838486 
_cell_length_c                    28.504572853578637 
_cell_angle_alpha                 89.46046111784914 
_cell_angle_beta                  90.36928104752202 
_cell_angle_gamma                 120.59221264807184 
loop_ 
_atom_site_label 
_atom_site_type_symbol 
_atom_site_fract_x 
_atom_site_fract_y 
_atom_site_fract_z 
_atom_site_charge 
Fe1        Fe  0.35577791  0.21493364  0.74550414     1.65800
Fe2        Fe  0.28307512  0.13743510  0.74690621     1.73200
Fe3        Fe  0.36129599  0.14464445  0.75226232     1.54400
O4          O  0.40088874  0.18299621  0.71452322    -0.81600
O5          O  0.28221053  0.10959650  0.80637581    -0.79900
O6          O  0.38175074  0.21532412  0.68426741    -0.84100
O7          O  0.39651506  0.22179198  0.78661625    -0.78900
O8          O  0.33947530  0.11853962  0.68997669    -0.80700
O9          O  0.27755479  0.16962475  0.79163752    -0.83400
C10         C  0.39958339  0.20334003  0.81767812     0.97300
C11         C  0.40099582  0.20231258  0.68216287     1.04800
O12         O  0.33296627  0.16545982  0.74836967    -1.12400
O13         O  0.27954997  0.16286834  0.68716029    -0.74800
O14         O  0.31901881  0.21631014  0.70452535    -0.78300
O15         O  0.38362811  0.17083874  0.81450639    -0.79000
C16         C  0.29412280  0.19492687  0.67967821     0.96200
O17         O  0.32995165  0.21473826  0.80632025    -0.77000
O18         O  0.28412543  0.10253879  0.70234808    -0.82200
C19         C  0.30014792  0.09569515  0.81440688     0.98900
C20         C  0.30765384  0.10219659  0.67839997     1.04800
O21         O  0.32672733  0.10317624  0.79078525    -0.77800
C22         C  0.29823127  0.19487481  0.81681757     1.03100
C23         C  0.46841707  0.00303220  0.01415111     0.80300
N24         N  0.50003533  0.03195932  0.01334131    -0.78000
C25         C  0.02956575  0.03063231  0.01263190     0.82800
N26         N  0.02708206  0.99944412  0.01313381    -0.77900
C27         C  0.49793090  0.47538134  0.00204467     0.82900
N28         N  0.46862493  0.47709306  0.00285431    -0.79600
C29         C  0.30464243  0.02347588  0.97720318     0.80300
N30         N  0.28103279  0.51032730  0.00867944    -0.78000
C31         C  0.28903906  0.49588409  0.04498236     0.82800
N32         N  0.31878708  0.49495373  0.04346339    -0.77900
C33         C  0.34083342  0.50875519  0.00673133     0.82900
N34         N  0.33427084  0.02235091  0.97906115    -0.79600
C35         C  0.21722269  0.19329431  0.97270782     0.80300
N36         N  0.18627658  0.16358851  0.97599566    -0.78000
C37         C  0.16121632  0.16053859  0.00544203     0.82800
N38         N  0.16760386  0.18791604  0.03194569    -0.77900
C39         C  0.19847779  0.21774044  0.02933651     0.82900
N40         N  0.22323380  0.22040834  0.99958029    -0.79600
C41         C  0.00454973  0.30507052  0.04436151     0.80300
N42         N  0.00676896  0.33607320  0.04190192    -0.78000
C43         C  0.99346121  0.34448156  0.00472545     0.82800
N44         N  0.47799041  0.32153035  0.96957204    -0.77900
C45         C  0.47602063  0.29058354  0.97136331     0.82900
N46         N  0.98926901  0.28245194  0.00884593    -0.79600
Fe47       Fe  0.13871562  0.35717910  0.25119888     1.65800
Fe48       Fe  0.13999597  0.28371480  0.24343787     1.73200
Fe49       Fe  0.21501677  0.35908966  0.24855862     1.54400
O50         O  0.21747587  0.39007351  0.19543885    -0.81600
O51         O  0.17695374  0.27804092  0.28238542    -0.82100
O52         O  0.17350058  0.39846457  0.20787982    -0.84100
O53         O  0.16366847  0.38182144  0.31005701    -0.78900
O54         O  0.21823767  0.32705995  0.19733085    -0.80700
O55         O  0.11565308  0.27962640  0.30453147    -0.83400
C56         C  0.19497550  0.39702794  0.32205754     0.97300
C57         C  0.20184056  0.40613587  0.18776898     1.04800
O58         O  0.16469535  0.33351108  0.24760148    -1.12400
O59         O  0.09845666  0.28054107  0.20437387    -0.74800
O60         O  0.11143948  0.33424751  0.19281068    -0.78300
O61         O  0.21786859  0.39409271  0.29971146    -0.79000
C62         C  0.09286327  0.30268791  0.18504158     0.96200
O63         O  0.10067077  0.31928168  0.29575992    -0.77000
O64         O  0.16382802  0.28633186  0.18209197    -0.82200
C65         C  0.20379689  0.29867188  0.30560283     0.98900
C66         C  0.19569488  0.30227991  0.17245371     1.04800
O67         O  0.21741109  0.33067700  0.30217552    -0.77800
C68         C  0.09878719  0.29351789  0.31718220     1.03100
C69         C  0.50311468  0.02832823  0.50186283     0.80300
N70         N  0.46559037  0.49011100  0.50542754    -0.78000
C71         C  0.46597954  0.46034775  0.50320544     0.82800
N72         N  0.49688436  0.46164862  0.50364818    -0.77900
C73         C  0.02709970  0.49199879  0.50603708     0.82900
N74         N  0.03352988  0.02847822  0.50266093    -0.79600
C75         C  0.19738740  0.48231503  0.46929002     0.80300
N76         N  0.16627928  0.48036360  0.47291661    -0.78000
C77         C  0.16195344  0.50141911  0.50222873     0.82800
N78         N  0.19332081  0.02447158  0.52750185    -0.77900
C79         C  0.22307809  0.02347302  0.52780066     0.82900
N80         N  0.22435678  0.50510133  0.49572589    -0.79600
C81         C  0.47626742  0.18900706  0.53049095     0.80300
N82         N  0.47760939  0.15971322  0.53285525    -0.78000
C83         C  0.99607579  0.15341696  0.50100114     0.82800
N84         N  0.01397351  0.17742047  0.46745318    -0.77900
C85         C  0.01265440  0.20665739  0.46463324     0.82900
N86         N  0.99367537  0.21232971  0.49612628    -0.79600
C87         C  0.30171638  0.27248268  0.51776093     0.80300
N88         N  0.28084050  0.26559337  0.47965866    -0.78000
C89         C  0.29018121  0.28915592  0.44438407     0.82800
N90         N  0.32013379  0.31972123  0.44810322    -0.77900
C91         C  0.34117465  0.32675627  0.48581697     0.82900
N92         N  0.33163133  0.30310623  0.52065166    -0.79600
C93         C  0.47388665  0.06093122  0.52275797    -0.12100
C94         C  0.00256275  0.06097370  0.50316560     0.04900
C95         C  0.02961139  0.09211603  0.48479172    -0.07400
C96         C  0.02694149  0.12162956  0.48462538    -0.08200
C97         C  0.99805779  0.12147756  0.50351382    -0.02700
C98         C  0.47162767  0.09067897  0.52365617     0.04100
N99         N  0.44178178  0.08874061  0.54402799     0.66600
H100        H  0.45297531  0.03757013  0.53770871     0.15500
H101        H  0.04780935  0.14490949  0.46949844     0.15200
N102        N  0.05958230  0.09411742  0.46474359     0.74300
O103        O  0.41538483  0.08005654  0.51908691    -0.39100
O104        O  0.43982334  0.09018201  0.58800582    -0.39100
O105        O  0.06005767  0.08853588  0.42155860    -0.39800
O106        O  0.08720907  0.10686389  0.48815672    -0.39900
C107        C  0.09038656  0.52228810  0.52432922    -0.12100
C108        C  0.06113096  0.49344079  0.50590731     0.04900
C109        C  0.06956572  0.96930620  0.49370098    -0.07400
C110        C  0.10168950  0.97124034  0.49316628    -0.08200
C111        C  0.12739050  0.49894522  0.50558041    -0.02700
C112        C  0.12300737  0.52519202  0.52476809     0.04100
N113        N  0.15136711  0.55550002  0.54395548     0.66600
H114        H  0.08799510  0.54288045  0.53906763     0.15500
H115        H  0.10228908  0.94808656  0.48669515     0.15200
N116        N  0.03940032  0.93677253  0.48565871     0.74300
O117        O  0.16122017  0.58385145  0.52385293    -0.39100
O118        O  0.16070393  0.55508064  0.58568084    -0.39100
O119        O  0.02914061  0.92740699  0.44421994    -0.39800
O120        O  0.02317982  0.40905796  0.48838969    -0.39900
C121        C  0.43329019  0.39672184  0.51373970    -0.12100
C122        C  0.43325292  0.42650907  0.49971962     0.04900
C123        C  0.40227947  0.42294729  0.48140898    -0.07400
C124        C  0.37289958  0.39030800  0.47639070    -0.08200
C125        C  0.37318937  0.36070304  0.49018581    -0.02700
C126        C  0.40377734  0.36417576  0.50926972     0.04100
N127        N  0.40579528  0.33476381  0.52224551     0.66600
H128        H  0.45654891  0.39856814  0.52793291     0.15500
H129        H  0.34950757  0.38816373  0.46215544     0.15200
N130        N  0.40024611  0.45203673  0.46680095     0.74300
O131        O  0.40686706  0.31592179  0.49086202    -0.39100
O132        O  0.41020979  0.32967870  0.56464767    -0.39100
O133        O  0.40508723  0.46123824  0.42429001    -0.39800
O134        O  0.38802525  0.46476764  0.49435111    -0.39900
C135        C  0.02070565  0.24502131  0.39612886    -0.12100
C136        C  0.03488722  0.23357810  0.43081304     0.04900
C137        C  0.07069569  0.24678391  0.43153716    -0.07400
C138        C  0.09117394  0.26899049  0.39613457    -0.08200
C139        C  0.07695176  0.27817253  0.35901734    -0.02700
C140        C  0.04145489  0.26706784  0.35989510     0.04100
N141        N  0.02582953  0.27550481  0.32242936     0.66600
H142        H  0.99291901  0.23511148  0.39557480     0.15500
H143        H  0.11903776  0.27812451  0.39631540     0.15200
N144        N  0.08638426  0.23724170  0.46765652     0.74300
O145        O  0.01639329  0.25772857  0.28565793    -0.39100
O146        O  0.01770774  0.29800584  0.32831054    -0.39100
O147        O  0.09378174  0.21441577  0.45993414    -0.39800
O148        O  0.09794391  0.25535111  0.50395694    -0.39900
C149        C  0.22576011  0.47464991  0.39932981    -0.12100
C150        C  0.20187191  0.46005777  0.43622377     0.04900
C151        C  0.18039654  0.42435231  0.43868066    -0.07400
C152        C  0.18142716  0.40400112  0.40304364    -0.08200
C153        C  0.20322663  0.41859660  0.36407429    -0.02700
C154        C  0.22613439  0.45425565  0.36270179     0.04100
N155        N  0.24676222  0.47043431  0.32210329     0.66600
H156        H  0.24217883  0.50219453  0.39698284     0.15500
H157        H  0.16354274  0.37663412  0.40441745     0.15200
N158        N  0.15678659  0.40848198  0.47665773     0.74300
O159        O  0.23261751  0.47238352  0.28476477    -0.39100
O160        O  0.27918736  0.48746350  0.32571418    -0.39100
O161        O  0.12489012  0.39598422  0.46986349    -0.39800
O162        O  0.16716637  0.40231830  0.51466763    -0.39900
C163        C  0.25737770  0.29998931  0.32662192    -0.12100
C164        C  0.22223676  0.28659014  0.33598200     0.04900
C165        C  0.20865661  0.26946581  0.37896551    -0.07400
C166        C  0.23083209  0.26799922  0.41274751    -0.08200
C167        C  0.26648507  0.28370729  0.40457865    -0.02700
C168        C  0.27944592  0.29861688  0.36016338     0.04100
N169        N  0.31526784  0.31375465  0.34924197     0.66600
H170        H  0.26818295  0.31335377  0.29377331     0.15500
H171        H  0.22046407  0.25664066  0.44674201     0.15200
N172        N  0.17341985  0.25685489  0.39092044     0.74300
O173        O  0.32781189  0.29493053  0.34185746    -0.39100
O174        O  0.33337708  0.34552446  0.34172062    -0.39100
O175        O  0.14978078  0.23151951  0.36941323    -0.39800
O176        O  0.16630526  0.26726497  0.42768021    -0.39900
C177        C  0.03940887  0.28041385  0.07492696    -0.12100
C178        C  0.02098969  0.29718526  0.08377044     0.04900
C179        C  0.02139388  0.30905162  0.12939645    -0.07400
C180        C  0.04234351  0.30679908  0.16381296    -0.08200
C181        C  0.06315722  0.29288899  0.15381247    -0.02700
C182        C  0.06044690  0.27813012  0.10969364     0.04100
N183        N  0.08170910  0.26430102  0.09813522     0.66600
H184        H  0.03918751  0.27093955  0.04010354     0.15500
H185        H  0.04412538  0.31808843  0.19783537     0.15200
N186        N  0.00158536  0.32450936  0.14094074     0.74300
O187        O  0.07759781  0.23782067  0.11887437    -0.39100
O188        O  0.10380216  0.27784607  0.06591082    -0.39100
O189        O  0.47128658  0.30613459  0.15612896    -0.39800
O190        O  0.01628997  0.35659858  0.14426951    -0.39900
C191        C  0.18540564  0.28360748  0.09012661    -0.12100
C192        C  0.20539106  0.28982935  0.13083016     0.04900
C193        C  0.22759618  0.27650330  0.13409519    -0.07400
C194        C  0.22724324  0.25501832  0.09851607    -0.08200
C195        C  0.20490430  0.24656185  0.05983289    -0.02700
C196        C  0.18499793  0.26223325  0.05482165     0.04100
N197        N  0.16314425  0.25549049  0.01491228     0.66600
H198        H  0.16840641  0.29392862  0.08702536     0.15500
H199        H  0.24254375  0.24290008  0.10286107     0.15200
N200        N  0.24750986  0.28128646  0.17554769     0.74300
O201        O  0.13086585  0.24003778  0.02010701    -0.39100
O202        O  0.17614705  0.26974009  0.97615304    -0.39100
O203        O  0.23515154  0.25962394  0.20849562    -0.39800
O204        O  0.27889759  0.30440649  0.17654327    -0.39900
C205        C  0.22903449  0.45964274  0.07674186    -0.12100
C206        C  0.26487289  0.47928760  0.08480496     0.04900
C207        C  0.27751659  0.47956992  0.13028702    -0.07400
C208        C  0.25510633  0.45815447  0.16510674    -0.08200
C209        C  0.21997267  0.43585233  0.15582082    -0.02700
C210        C  0.20652001  0.43781431  0.11192637     0.04100
N211        N  0.17089061  0.41556951  0.10116730     0.66600
H212        H  0.21879098  0.45930279  0.04212041     0.15500
H213        H  0.26575665  0.45713164  0.19891756     0.15200
N214        N  0.31339112  0.50029162  0.14117471     0.74300
O215        O  0.14962517  0.42531142  0.10840817    -0.39100
O216        O  0.16156934  0.38855854  0.07836655    -0.39100
O217        O  0.31044417  0.03911516  0.15671379    -0.39800
O218        O  0.33152812  0.48655708  0.14617192    -0.39900
C219        C  0.06566976  0.09390764  0.02495929    -0.12100
C220        C  0.06390915  0.06328289  0.01179280     0.04900
C221        C  0.09478361  0.06504508  0.99723162    -0.07400
C222        C  0.12589096  0.09672046  0.99566221    -0.08200
C223        C  0.12752830  0.12735136  0.00870485    -0.02700
C224        C  0.09672131  0.12546953  0.02368494     0.04100
N225        N  0.09590266  0.15549826  0.03564604     0.66600
H226        H  0.04262312  0.09356191  0.03649234     0.15500
H227        H  0.14902981  0.09722282  0.98413015     0.15200
N228        N  0.09501501  0.03518644  0.98253637     0.74300
O229        O  0.08308768  0.16732590  0.00696223    -0.39100
O230        O  0.10038220  0.16515531  0.07778277    -0.39100
O231        O  0.09308932  0.02837182  0.93942268    -0.39800
O232        O  0.10294073  0.01910944  0.01148640    -0.39900
C233        C  0.02536285  0.43978011  0.01625283    -0.12100
C234        C  0.49622290  0.44148070  0.00224238     0.04900
C235        C  0.46620251  0.41062106  0.98881962    -0.07400
C236        C  0.46620320  0.37967349  0.98881800    -0.08200
C237        C  0.99525780  0.37815082  0.00301108    -0.02700
C238        C  0.02508766  0.40868710  0.01695064     0.04100
N239        N  0.05582681  0.40881080  0.03016757     0.66600
H240        H  0.04871527  0.46280034  0.02683710     0.15500
H241        H  0.44293558  0.35643952  0.97849838     0.15200
N242        N  0.43537366  0.41001732  0.97491735     0.74300
O243        O  0.07431970  0.40649711  0.99904324    -0.39100
O244        O  0.06686839  0.41582872  0.07175201    -0.39100
O245        O  0.43018891  0.41317652  0.93210265    -0.39800
O246        O  0.41082731  0.39984478  0.00367615    -0.39900
C247        C  0.40622091  0.47927086  0.01762034    -0.12100
C248        C  0.43608325  0.00492048  0.01531789     0.04900
C249        C  0.43553538  0.03495469  0.00285951    -0.07400
C250        C  0.40435821  0.03500471  0.00312010    -0.08200
C251        C  0.37353601  0.50812631  0.00562234    -0.02700
C252        C  0.37476558  0.47873209  0.01856070     0.04100
N253        N  0.34398140  0.44757034  0.03055569     0.66600
H254        H  0.40624467  0.45621064  0.02747889     0.15500
H255        H  0.40455252  0.05814568  0.99291606     0.15200
N256        N  0.46625882  0.06572786  0.98957242     0.74300
O257        O  0.32398828  0.42887248  0.99850983    -0.39100
O258        O  0.33927928  0.43646041  0.07219891    -0.39100
O259        O  0.47447997  0.07166753  0.94683632    -0.39800
O260        O  0.48131095  0.08944720  0.01903367    -0.39900
C261        C  0.43361524  0.20497180  0.55846468    -0.12100
C262        C  0.45956785  0.19726274  0.56842233     0.04900
C263        C  0.46959831  0.19747185  0.61523744    -0.07400
C264        C  0.45255080  0.20337508  0.65127096    -0.08200
C265        C  0.42435342  0.20790243  0.64215049    -0.02700
C266        C  0.41570538  0.20998828  0.59500969     0.04100
N267        N  0.38733975  0.21455435  0.58379346     0.66600
H268        H  0.42614202  0.20548147  0.52238912     0.15500
H269        H  0.46015489  0.20223887  0.68710593     0.15200
N270        N  0.49671180  0.19101824  0.62687108     0.74300
O271        O  0.39210946  0.24434128  0.57986776    -0.39100
O272        O  0.35879500  0.18921953  0.57171260    -0.39100
O273        O  0.52680266  0.21579039  0.63385980    -0.39800
O274        O  0.48947123  0.16115332  0.63807023    -0.39900
C275        C  0.30425292  0.03004518  0.89129317    -0.12100
C276        C  0.29728994  0.03824370  0.93543679     0.04900
C277        C  0.28487413  0.06113152  0.93847085    -0.07400
C278        C  0.28276615  0.07775676  0.89776839    -0.08200
C279        C  0.29233161  0.07137340  0.85389845    -0.02700
C280        C  0.30137397  0.04584937  0.85075503     0.04100
N281        N  0.30819062  0.03594278  0.80652040     0.66600
H282        H  0.31253365  0.01152081  0.88824749     0.15500
H283        H  0.27593900  0.09732953  0.90102617     0.15200
N284        N  0.27711846  0.06987404  0.98289932     0.74300
O285        O  0.33899557  0.04750059  0.79384801    -0.39100
O286        O  0.28438191  0.00987106  0.78650146    -0.39100
O287        O  0.29982071  0.09599835  0.00415676    -0.39800
O288        O  0.24640316  0.05458745  0.99743032    -0.39900
C289        C  0.44999231  0.25549272  0.84890300    -0.12100
C290        C  0.42275806  0.22197356  0.85753613     0.04900
C291        C  0.41575425  0.20981785  0.90426109    -0.07400
C292        C  0.43475949  0.23192017  0.94123407    -0.08200
C293        C  0.46006981  0.26621882  0.93226615    -0.02700
C294        C  0.46843361  0.27752729  0.88555313     0.04100
N295        N  0.49566483  0.31144092  0.87479101     0.66600
H296        H  0.45634222  0.26515395  0.81323582     0.15500
H297        H  0.42816876  0.22292692  0.97712856     0.15200
N298        N  0.38751693  0.17644655  0.91499891     0.74300
O299        O  0.52664834  0.31888800  0.87865285    -0.39100
O300        O  0.48883728  0.33260233  0.85609642    -0.39100
O301        O  0.39323108  0.15373286  0.93069671    -0.39800
O302        O  0.35709589  0.17098753  0.91447905    -0.39900
C303        C  0.28662300  0.09987149  0.59878492    -0.12100
C304        C  0.29624901  0.08421641  0.63345187     0.04900
C305        C  0.28504074  0.04921037  0.62970662    -0.07400
C306        C  0.26291988  0.03015718  0.59283002    -0.08200
C307        C  0.25139841  0.04546083  0.56008262    -0.02700
C308        C  0.26439418  0.08089440  0.56221209     0.04100
N309        N  0.25440590  0.09769934  0.52836711     0.66600
H310        H  0.29475567  0.12671294  0.60188200     0.15500
H311        H  0.25301176  0.00286705  0.59147199     0.15200
N312        N  0.29347571  0.03216948  0.66511713     0.74300
O313        O  0.24302990  0.11648533  0.54174813    -0.39100
O314        O  0.26050107  0.09684806  0.48540742    -0.39100
O315        O  0.26969134  0.00712082  0.68716451    -0.39800
O316        O  0.32414993  0.03870773  0.66928658    -0.39900
C317        C  0.28003974  0.19510387  0.59460855    -0.12100
C318        C  0.28449587  0.20940616  0.63941690     0.04900
C319        C  0.28869364  0.24232264  0.64323488    -0.07400
C320        C  0.29280744  0.26175917  0.60292654    -0.08200
C321        C  0.29130849  0.24862591  0.55820655    -0.02700
C322        C  0.28301952  0.21434114  0.55397847     0.04100
N323        N  0.28104720  0.19997257  0.50891480     0.66600
H324        H  0.27741293  0.17020608  0.59101823     0.15500
H325        H  0.29801362  0.28770640  0.60663516     0.15200
N326        N  0.29034037  0.25690706  0.68812520     0.74300
O327        O  0.30825515  0.20563672  0.48850570    -0.39100
O328        O  0.25204779  0.17880262  0.49177799    -0.39100
O329        O  0.31708522  0.28428095  0.70013731    -0.39800
O330        O  0.26353169  0.24492303  0.71299882    -0.39900
C331        C  0.26318020  0.22670567  0.91255945    -0.12100
C332        C  0.24328604  0.19615240  0.93832177     0.04900
C333        C  0.24586065  0.16732802  0.92713415    -0.07400
C334        C  0.26567227  0.16863988  0.88886835    -0.08200
C335        C  0.28380667  0.19831436  0.86142424    -0.02700
C336        C  0.28348466  0.22796103  0.87428692     0.04100
N337        N  0.30102690  0.25836638  0.84645134     0.66600
H338        H  0.26148419  0.24908554  0.92046873     0.15500
H339        H  0.26627777  0.14583502  0.87974251     0.15200
N340        N  0.22826784  0.13634327  0.95401748     0.74300
O341        O  0.28538337  0.26345575  0.81338921    -0.39100
O342        O  0.33272794  0.27910589  0.85295538    -0.39100
O343        O  0.20779101  0.10854009  0.93399425    -0.39800
O344        O  0.23696310  0.13592781  0.99608235    -0.39900
Fe345      Fe  0.35975824  0.71821351  0.74511865     1.65800
Fe346      Fe  0.28570092  0.64268092  0.74451128     1.73200
Fe347      Fe  0.36224284  0.64626733  0.74839684     1.54400
O348        O  0.40195137  0.68413728  0.70938410    -0.81600
O349        O  0.28352791  0.61392184  0.80350644    -0.79900
O350        O  0.38382687  0.71843190  0.68244800    -0.84100
O351        O  0.40095173  0.72284360  0.78266744    -0.78900
O352        O  0.33907069  0.62067524  0.68599909    -0.80700
O353        O  0.28212537  0.67605299  0.78922776    -0.83400
C354        C  0.40216014  0.70414174  0.81492585     0.97300
C355        C  0.40228697  0.70464640  0.67855098     1.04800
O356        O  0.33552306  0.66874164  0.74599561    -1.12400
O357        O  0.28427474  0.66939292  0.68514745    -0.74800
O358        O  0.32278480  0.72183452  0.70751936    -0.78300
O359        O  0.38554690  0.67167599  0.81113570    -0.79000
C360        C  0.29908194  0.70167306  0.68010580     0.96200
O361        O  0.33561165  0.71755382  0.80770586    -0.77000
O362        O  0.28454621  0.60690436  0.69974643    -0.82200
C363        C  0.30038303  0.59881182  0.81112434     0.98900
C364        C  0.30715599  0.60564481  0.67486609     1.04800
O365        O  0.32674316  0.60537839  0.78742332    -0.77800
C366        C  0.30345648  0.69911455  0.81675981     1.03100
C367        C  0.46992697  0.50771610  0.00298970     0.80300
N368        N  0.50130851  0.53699276  0.00253146    -0.78000
C369        C  0.03105192  0.53604607  0.00167422     0.82800
N370        N  0.02902158  0.50506445  0.00164374    -0.77900
C371        C  0.49566789  0.97002760  0.01376856     0.82900
N372        N  0.46657095  0.97215376  0.01437102    -0.79600
C373        C  0.30296191  0.52423786  0.97168439     0.80300
N374        N  0.28127729  0.00921028  0.01241946    -0.78000
C375        C  0.28767086  0.99436114  0.04963439     0.82800
N376        N  0.31735509  0.99325496  0.05109369    -0.77900
C377        C  0.34083740  0.00724992  0.01583939     0.82900
N378        N  0.33275614  0.52340828  0.97103438    -0.79600
C379        C  0.22059599  0.69678818  0.97006124     0.80300
N380        N  0.18898003  0.66783035  0.97176635    -0.78000
C381        C  0.16355111  0.66534071  0.99994682     0.82800
N382        N  0.17018845  0.69276281  0.02662318    -0.77900
C383        C  0.20174275  0.72196982  0.02529867     0.82900
N384        N  0.22686107  0.72385724  0.99707086    -0.79600
C385        C  0.00009609  0.79719210  0.05101452     0.80300
N386        N  0.00142269  0.82782728  0.05213408    -0.78000
C387        C  0.98817329  0.83768989  0.01644960     0.82800
N388        N  0.47338412  0.81628766  0.97951838    -0.77900
C389        C  0.47212770  0.78571050  0.97766591     0.82900
N390        N  0.98564284  0.77633024  0.01351331    -0.79600
Fe391      Fe  0.13912188  0.85392140  0.25409661     1.65800
Fe392      Fe  0.14434355  0.78202074  0.24060044     1.73200
Fe393      Fe  0.21826848  0.86029042  0.24831855     1.54400
O394        O  0.21935140  0.89500506  0.20276616    -0.81600
O395        O  0.17956917  0.77716969  0.28456813    -0.82100
O396        O  0.16904098  0.89329312  0.20565596    -0.84100
O397        O  0.16708801  0.88219965  0.30896011    -0.78900
O398        O  0.22312990  0.83414304  0.19062095    -0.80700
O399        O  0.11502312  0.77375432  0.29780128    -0.83400
C400        C  0.19690294  0.89392162  0.32581805     0.97300
C401        C  0.19967915  0.90577600  0.19019843     1.04800
O402        O  0.16725124  0.83211029  0.24746510    -1.12400
O403        O  0.10473696  0.77801237  0.19664420    -0.74800
O404        O  0.10699715  0.82796142  0.20086274    -0.78300
O405        O  0.21971458  0.88934807  0.30657916    -0.79000
C406        C  0.09386024  0.79804992  0.18522286     0.96200
O407        O  0.10568892  0.81729381  0.30357234    -0.77000
O408        O  0.17183984  0.78629765  0.18237473    -0.82200
C409        C  0.20866944  0.79816990  0.30274024     0.98900
C410        C  0.20235912  0.80662604  0.16898672     1.04800
O411        O  0.22422029  0.82973108  0.29415605    -0.77800
C412        C  0.10093375  0.78838240  0.31737873     1.03100
C413        C  0.49554854  0.52082100  0.50792115     0.80300
N414        N  0.47289165  0.99781317  0.49982958    -0.78000
C415        C  0.47275431  0.96781597  0.49851578     0.82800
N416        N  0.50336961  0.96866387  0.49961705    -0.77900
C417        C  0.03397109  0.99868168  0.50153284     0.82900
N418        N  0.02604291  0.52135551  0.50839746    -0.79600
C419        C  0.19860350  0.97807219  0.47411251     0.80300
N420        N  0.16889541  0.97907642  0.47433124    -0.78000
C421        C  0.16598254  0.00229302  0.50070932     0.82800
N422        N  0.18939873  0.52429655  0.52829350    -0.77900
C423        C  0.22049656  0.52612847  0.52532090     0.82900
N424        N  0.22558184  0.00026571  0.50106424    -0.79600
C425        C  0.47493818  0.68627111  0.53041038     0.80300
N426        N  0.47358508  0.65563114  0.53448114    -0.78000
C427        C  0.99138981  0.64740556  0.50405672     0.82800
N428        N  0.01096598  0.67050299  0.47054807    -0.77900
C429        C  0.01305119  0.70132885  0.46668534     0.82900
N430        N  0.99475300  0.70906543  0.49660971    -0.79600
C431        C  0.30936434  0.78031062  0.51755924     0.80300
N432        N  0.28818957  0.77221050  0.47969127    -0.78000
C433        C  0.29678737  0.79484058  0.44347285     0.82800
N434        N  0.32646058  0.82585191  0.44585619    -0.77900
C435        C  0.34784563  0.83408504  0.48350916     0.82900
N436        N  0.33891307  0.81125440  0.51930606    -0.79600
C437        C  0.46549386  0.55365095  0.52499306    -0.12100
C438        C  0.99494517  0.55351582  0.50879853     0.04900
C439        C  0.02342541  0.58488241  0.49346643    -0.07400
C440        C  0.02163646  0.61475828  0.49342087    -0.08200
C441        C  0.99204853  0.61488322  0.50843058    -0.02700
C442        C  0.46396661  0.58389778  0.52538722     0.04100
N443        N  0.43330262  0.58241305  0.54164559     0.66600
H444        H  0.44337747  0.53008396  0.53747511     0.15500
H445        H  0.04385957  0.63823961  0.48097179     0.15200
N446        N  0.05399758  0.58679712  0.47582513     0.74300
O447        O  0.40857427  0.57447918  0.51367001    -0.39100
O448        O  0.42914161  0.58446007  0.58497816    -0.39100
O449        O  0.05546851  0.58015920  0.43331052    -0.39800
O450        O  0.08104590  0.60005146  0.50051610    -0.39900
C451        C  0.09849973  0.02973329  0.51113970    -0.12100
C452        C  0.06752707  0.99897846  0.50215646     0.04900
C453        C  0.06527610  0.46690826  0.48757249    -0.07400
C454        C  0.09794496  0.46989940  0.48754710    -0.08200
C455        C  0.13260296  0.00207351  0.50143139    -0.02700
C456        C  0.13064263  0.03155159  0.51086258     0.04100
N457        N  0.16109340  0.06398810  0.51809131     0.66600
H458        H  0.09799511  0.05289158  0.51791912     0.15500
H459        H  0.10020817  0.44928065  0.47264262     0.15200
N460        N  0.03696546  0.43733413  0.46682338     0.74300
O461        O  0.18057975  0.07949790  0.48377944    -0.39100
O462        O  0.16501502  0.07972472  0.55598822    -0.39100
O463        O  0.02890649  0.43842099  0.42462764    -0.39800
O464        O  0.02711580  0.91517996  0.51869851    -0.39900
C465        C  0.43964423  0.90456867  0.51136114    -0.12100
C466        C  0.43984531  0.93412148  0.49568759     0.04900
C467        C  0.40909882  0.93034182  0.47616618    -0.07400
C468        C  0.37976357  0.89758242  0.47125646    -0.08200
C469        C  0.37985579  0.86818136  0.48676971    -0.02700
C470        C  0.41020814  0.87201799  0.50731464     0.04100
N471        N  0.41203880  0.84292855  0.52262915     0.66600
H472        H  0.46263807  0.90660079  0.52681205     0.15500
H473        H  0.35650654  0.89521755  0.45613994     0.15200
N474        N  0.40717736  0.95933544  0.46072957     0.74300
O475        O  0.41600578  0.82478565  0.49294997    -0.39100
O476        O  0.41401385  0.83789069  0.56585300    -0.39100
O477        O  0.40972319  0.96673437  0.41761050    -0.39800
O478        O  0.39725565  0.97386542  0.48884561    -0.39900
C479        C  0.02889044  0.74949098  0.40913966    -0.12100
C480        C  0.03703579  0.72684183  0.43209801     0.04900
C481        C  0.06754563  0.72738532  0.41959762    -0.07400
C482        C  0.08774568  0.74840911  0.38320067    -0.08200
C483        C  0.07916961  0.76993370  0.35855197    -0.02700
C484        C  0.04958843  0.77084252  0.37217291     0.04100
N485        N  0.03872918  0.79094574  0.34659131     0.66600
H486        H  0.00542934  0.74927411  0.41816805     0.15500
H487        H  0.11050739  0.74749073  0.37375615     0.15200
N488        N  0.07876415  0.70695715  0.44373279     0.74300
O489        O  0.02612195  0.78195818  0.30598699    -0.39100
O490        O  0.03778103  0.81511028  0.36657821    -0.39100
O491        O  0.08523845  0.68721256  0.42089005    -0.39800
O492        O  0.08660336  0.71200377  0.48667721    -0.39900
C493        C  0.23159569  0.96519621  0.41559267    -0.12100
C494        C  0.20180321  0.95383656  0.44319355     0.04900
C495        C  0.17386273  0.92039695  0.43705030    -0.07400
C496        C  0.17480953  0.90022233  0.40124232    -0.08200
C497        C  0.20292918  0.91272919  0.37028940    -0.02700
C498        C  0.23223958  0.94497565  0.37888259     0.04100
N499        N  0.26121010  0.95888848  0.34804915     0.66600
H500        H  0.25337182  0.99084475  0.42009718     0.15500
H501        H  0.15236346  0.87506130  0.39592123     0.15200
N502        N  0.14385758  0.90685567  0.46603510     0.74300
O503        O  0.26076905  0.97367241  0.31057711    -0.39100
O504        O  0.28896564  0.96101638  0.36154221    -0.39100
O505        O  0.11507578  0.89885546  0.44798030    -0.39800
O506        O  0.14503162  0.89759053  0.50753754    -0.39900
C507        C  0.26210780  0.79935056  0.32415674    -0.12100
C508        C  0.22728265  0.78715973  0.33443383     0.04900
C509        C  0.21444592  0.77255065  0.37885203    -0.07400
C510        C  0.23698551  0.77222916  0.41295939    -0.08200
C511        C  0.27251053  0.78749313  0.40390623    -0.02700
C512        C  0.28471831  0.79979907  0.35831782     0.04100
N513        N  0.32031199  0.81411578  0.34670043     0.66600
H514        H  0.27234482  0.81069916  0.29007520     0.15500
H515        H  0.22722847  0.76298861  0.44795901     0.15200
N516        N  0.17997048  0.76226957  0.39194531     0.74300
O517        O  0.33224625  0.79466179  0.34027739    -0.39100
O518        O  0.33857317  0.84553805  0.33692358    -0.39100
O519        O  0.15897927  0.73123120  0.40113966    -0.39800
O520        O  0.17287916  0.78469319  0.40376935    -0.39900
C521        C  0.03905318  0.77568843  0.07578573    -0.12100
C522        C  0.01760653  0.78859643  0.08811309     0.04900
C523        C  0.01676872  0.79730394  0.13513324    -0.07400
C524        C  0.03983796  0.79675138  0.16748574    -0.08200
C525        C  0.06381323  0.78732462  0.15411684    -0.02700
C526        C  0.06199981  0.77477329  0.10866773     0.04100
N527        N  0.08573792  0.76466981  0.09407987     0.66600
H528        H  0.03974600  0.76854864  0.03982140     0.15500
H529        H  0.04034938  0.80562848  0.20283260     0.15200
N530        N  0.99324012  0.80762568  0.15026162     0.74300
O531        O  0.08067626  0.73550359  0.10508792    -0.39100
O532        O  0.11238101  0.78532383  0.07142944    -0.39100
O533        O  0.46267957  0.78513394  0.16043118    -0.39800
O534        O  0.00442039  0.83834372  0.16133320    -0.39900
C535        C  0.19330527  0.79097103  0.08573385    -0.12100
C536        C  0.21271356  0.79579571  0.12664313     0.04900
C537        C  0.23281403  0.78016826  0.13038340    -0.07400
C538        C  0.23107765  0.75801233  0.09496465    -0.08200
C539        C  0.20904566  0.75079505  0.05623604    -0.02700
C540        C  0.19128942  0.76863579  0.05068295     0.04100
N541        N  0.17003925  0.76323644  0.01049399     0.66600
H542        H  0.17766527  0.80276020  0.08260955     0.15500
H543        H  0.24484552  0.74436360  0.09955934     0.15200
N544        N  0.25167302  0.78324835  0.17236452     0.74300
O545        O  0.13769189  0.74771533  0.01486758    -0.39100
O546        O  0.18364674  0.77863830  0.97256905    -0.39100
O547        O  0.23690366  0.76295594  0.20624566    -0.39800
O548        O  0.28392382  0.80314278  0.17327189    -0.39900
C549        C  0.22767088  0.95225743  0.07486119    -0.12100
C550        C  0.26157504  0.97741125  0.08684915     0.04900
C551        C  0.27102921  0.98331625  0.13443691    -0.07400
C552        C  0.24777353  0.96221864  0.16881478    -0.08200
C553        C  0.21527422  0.93452105  0.15661352    -0.02700
C554        C  0.20459634  0.93041985  0.10939088     0.04100
N555        N  0.17237096  0.90174673  0.09536882     0.66600
H556        H  0.22012231  0.94753322  0.03827273     0.15500
H557        H  0.25636528  0.96552229  0.20502702     0.15200
N558        N  0.30481171  0.00950433  0.14817978     0.74300
O559        O  0.14759425  0.90594861  0.08436368    -0.39100
O560        O  0.17022935  0.87343763  0.08752061    -0.39100
O561        O  0.32532650  0.53083360  0.15378051    -0.39800
O562        O  0.32720755  0.00176494  0.15905945    -0.39900
C563        C  0.06735515  0.59907560  0.01722754    -0.12100
C564        C  0.06528543  0.56879229  0.00152366     0.04900
C565        C  0.09601055  0.57070161  0.98601550    -0.07400
C566        C  0.12734356  0.60208409  0.98638234    -0.08200
C567        C  0.12941645  0.63244778  0.00182164    -0.02700
C568        C  0.09872753  0.63047000  0.01765437     0.04100
N569        N  0.09847587  0.66022476  0.03270922     0.66600
H570        H  0.04436685  0.59851987  0.02958614     0.15500
H571        H  0.15030753  0.60256515  0.97408069     0.15200
N572        N  0.09582523  0.54135022  0.96805527     0.74300
O573        O  0.08781356  0.67466880  0.00499652    -0.39100
O574        O  0.10165472  0.66742028  0.07578166    -0.39100
O575        O  0.08861143  0.53351564  0.92545246    -0.39800
O576        O  0.10805209  0.52667791  0.99247229    -0.39900
C577        C  0.01858161  0.93216596  0.03832658    -0.12100
C578        C  0.49325444  0.93594219  0.01463513     0.04900
C579        C  0.46613922  0.90702962  0.99217392    -0.07400
C580        C  0.46512874  0.87559657  0.99319573    -0.08200
C581        C  0.99046864  0.87175959  0.01678215    -0.02700
C582        C  0.01745647  0.90062463  0.03974868     0.04100
N583        N  0.04477779  0.89889614  0.06302948     0.66600
H584        H  0.03962636  0.95395638  0.05579016     0.15500
H585        H  0.44417436  0.85396518  0.97535113     0.15200
N586        N  0.44004791  0.90938385  0.96655241     0.74300
O587        O  0.06601841  0.89487484  0.03934912    -0.39100
O588        O  0.05081571  0.90660295  0.10584315    -0.39100
O589        O  0.44421952  0.91677089  0.92340045    -0.39800
O590        O  0.41085480  0.89868361  0.98489773    -0.39900
C591        C  0.40479671  0.97592027  0.02923569    -0.12100
C592        C  0.43717689  0.50879985  0.00408920     0.04900
C593        C  0.43581535  0.53838803  0.99158856    -0.07400
C594        C  0.40421846  0.53762100  0.99199545    -0.08200
C595        C  0.37328432  0.00601274  0.01687628    -0.02700
C596        C  0.37380152  0.97634032  0.03052015     0.04100
N597        N  0.34277320  0.94588018  0.04383363     0.66600
H598        H  0.40423389  0.95259036  0.03930048     0.15500
H599        H  0.40379230  0.56052425  0.98224707     0.15200
N600        N  0.46612181  0.56948892  0.97813462     0.74300
O601        O  0.32388924  0.92500266  0.01277430    -0.39100
O602        O  0.33693820  0.93748207  0.08657082    -0.39100
O603        O  0.47372141  0.57587182  0.93527047    -0.39800
O604        O  0.48147527  0.59293594  0.00789333    -0.39900
C605        C  0.42897447  0.69792969  0.55601875    -0.12100
C606        C  0.45884704  0.69669586  0.56631333     0.04900
C607        C  0.47336266  0.70544854  0.61140870    -0.07400
C608        C  0.45649461  0.71256039  0.64652638    -0.08200
C609        C  0.42486231  0.71077059  0.63772738    -0.02700
C610        C  0.41188716  0.70500278  0.59142901     0.04100
N611        N  0.37994971  0.70320994  0.58084800     0.66600
H612        H  0.41814293  0.69201701  0.52095530     0.15500
H613        H  0.46686834  0.71698968  0.68187359     0.15200
N614        N  0.50459351  0.70589497  0.62244972     0.74300
O615        O  0.37913320  0.73040109  0.57568016    -0.39100
O616        O  0.35378861  0.67492122  0.57033949    -0.39100
O617        O  0.53273863  0.73398919  0.62401534    -0.39800
O618        O  0.50347381  0.67884553  0.63607388    -0.39900
C619        C  0.29975025  0.52983844  0.88601584    -0.12100
C620        C  0.29432000  0.53868432  0.93068485     0.04900
C621        C  0.28406824  0.56320393  0.93473784    -0.07400
C622        C  0.28298621  0.58088602  0.89452741    -0.08200
C623        C  0.29134833  0.57390912  0.85017730    -0.02700
C624        C  0.29787540  0.54673046  0.84600174     0.04100
N625        N  0.30329063  0.53631756  0.80126238     0.66600
H626        H  0.30650565  0.51022426  0.88220124     0.15500
H627        H  0.27794883  0.60165043  0.89852907     0.15200
N628        N  0.27762171  0.57247099  0.97964293     0.74300
O629        O  0.33362066  0.54618804  0.78788056    -0.39100
O630        O  0.27830649  0.51117986  0.78129034    -0.39100
O631        O  0.30021948  0.59985168  0.99858060    -0.39800
O632        O  0.24759477  0.55640331  0.99657782    -0.39900
C633        C  0.44630226  0.75797736  0.85210385    -0.12100
C634        C  0.42364911  0.72243770  0.85663064     0.04900
C635        C  0.41970173  0.70721718  0.90137378    -0.07400
C636        C  0.43696146  0.72789941  0.94043247    -0.08200
C637        C  0.45752596  0.76370878  0.93577990    -0.02700
C638        C  0.46279855  0.77848197  0.89077329     0.04100
N639        N  0.48495311  0.81446398  0.88359526     0.66600
H640        H  0.45071207  0.77046351  0.81816458     0.15500
H641        H  0.43280227  0.71612542  0.97485078     0.15200
N642        N  0.39679151  0.67138180  0.90834196     0.74300
O643        O  0.51725383  0.82743163  0.88468126    -0.39100
O644        O  0.47235451  0.83264273  0.87147800    -0.39100
O645        O  0.40885739  0.65201413  0.91535941    -0.39800
O646        O  0.36497357  0.65992042  0.91398613    -0.39900
C647        C  0.28148082  0.60265167  0.59811503    -0.12100
C648        C  0.29447712  0.58809722  0.62968576     0.04900
C649        C  0.28632024  0.55415137  0.62295047    -0.07400
C650        C  0.26386149  0.53489913  0.58641836    -0.08200
C651        C  0.24908496  0.54894605  0.55682909    -0.02700
C652        C  0.25910248  0.58361554  0.56170614     0.04100
N653        N  0.24623998  0.59955459  0.53063031     0.66600
H654        H  0.28742346  0.62878693  0.60348693     0.15500
H655        H  0.25619282  0.50816158  0.58306180     0.15200
N656        N  0.29781309  0.53796616  0.65550357     0.74300
O657        O  0.23585564  0.61849001  0.54684782    -0.39100
O658        O  0.24931666  0.59826772  0.48683461    -0.39100
O659        O  0.27614433  0.51379808  0.68103302    -0.39800
O660        O  0.32825380  0.54367211  0.65295221    -0.39900
C661        C  0.28504894  0.70278214  0.59531500    -0.12100
C662        C  0.29123939  0.71766733  0.63994163     0.04900
C663        C  0.29820795  0.75166267  0.64358831    -0.07400
C664        C  0.30303455  0.77110613  0.60311119    -0.08200
C665        C  0.29970812  0.75713546  0.55854147    -0.02700
C666        C  0.28910714  0.72220196  0.55459636     0.04100
N667        N  0.28589140  0.70715996  0.50967329     0.66600
H668        H  0.28007175  0.67684698  0.59171869     0.15500
H669        H  0.30992875  0.79763754  0.60655872     0.15200
N670        N  0.30162169  0.76715511  0.68832769     0.74300
O671        O  0.31258333  0.71355419  0.48716668    -0.39100
O672        O  0.25661761  0.68454861  0.49497954    -0.39100
O673        O  0.32904265  0.79443686  0.69870802    -0.39800
O674        O  0.27581651  0.75586953  0.71506389    -0.39900
C675        C  0.27062900  0.73055089  0.91556505    -0.12100
C676        C  0.24719971  0.69905401  0.93715917     0.04900
C677        C  0.24710694  0.66928136  0.92305502    -0.07400
C678        C  0.26749614  0.67090291  0.88540743    -0.08200
C679        C  0.28888753  0.70168502  0.86165031    -0.02700
C680        C  0.29155574  0.73203259  0.87801324     0.04100
N681        N  0.31302984  0.76380595  0.85445671     0.66600
H682        H  0.27126314  0.75374716  0.92595809     0.15500
H683        H  0.26594759  0.64751356  0.87371008     0.15200
N684        N  0.22620963  0.63705233  0.94618129     0.74300
O685        O  0.30190605  0.77183482  0.81876337    -0.39100
O686        O  0.34397424  0.78266064  0.86716003    -0.39100
O687        O  0.20641511  0.61086734  0.92250212    -0.39800
O688        O  0.23112275  0.63376673  0.98907360    -0.39900
Fe689      Fe  0.85577205  0.21489830  0.74550500     1.65800
Fe690      Fe  0.78306271  0.13740622  0.74689284     1.73200
Fe691      Fe  0.86127958  0.14460394  0.75225390     1.54400
O692        O  0.90087885  0.18296131  0.71452994    -0.81600
O693        O  0.78219041  0.10955316  0.80635055    -0.79900
O694        O  0.88174093  0.21528547  0.68426432    -0.84100
O695        O  0.89650589  0.22174572  0.78661207    -0.78900
O696        O  0.83946498  0.11851135  0.68995549    -0.80700
O697        O  0.77754702  0.16958839  0.79164399    -0.83400
C698        C  0.89956493  0.20329245  0.81768056     0.97300
C699        C  0.90098364  0.20227111  0.68216158     1.04800
O700        O  0.83295369  0.16542442  0.74836294    -1.12400
O701        O  0.77953831  0.16285417  0.68716161    -0.74800
O702        O  0.81902006  0.21628897  0.70453311    -0.78300
O703        O  0.88360556  0.17079061  0.81450828    -0.79000
C704        C  0.79411708  0.19491437  0.67968933     0.96200
O705        O  0.82994558  0.21470221  0.80632326    -0.77000
O706        O  0.78411611  0.10252262  0.70231208    -0.82200
C707        C  0.80012477  0.09564892  0.81438315     0.98900
C708        C  0.80764622  0.10218432  0.67836164     1.04800
O709        O  0.82670480  0.10312861  0.79076317    -0.77800
C710        C  0.79822493  0.19483908  0.81682244     1.03100
C711        C  0.96842314  0.00305523  0.01414343     0.80300
N712        N  0.00004069  0.03198363  0.01333477    -0.78000
C713        C  0.52955944  0.03060661  0.01264762     0.82800
N714        N  0.52707459  0.99941810  0.01316077    -0.77900
C715        C  0.99790964  0.47535098  0.00204261     0.82900
N716        N  0.96860522  0.47706549  0.00284517    -0.79600
C717        C  0.80461654  0.02344070  0.97719521     0.80300
N718        N  0.78102613  0.51031847  0.00867483    -0.78000
C719        C  0.78903415  0.49587584  0.04497590     0.82800
N720        N  0.81878066  0.49494332  0.04345263    -0.77900
C721        C  0.84082378  0.50874163  0.00671682     0.82900
N722        N  0.83425168  0.02232858  0.97905745    -0.79600
C723        C  0.71721624  0.19326434  0.97271213     0.80300
N724        N  0.68626976  0.16355920  0.97600210    -0.78000
C725        C  0.66121087  0.16051048  0.00545011     0.82800
N726        N  0.66759999  0.18788869  0.03195326    -0.77900
C727        C  0.69847423  0.21771273  0.02934237     0.82900
N728        N  0.72322904  0.22037931  0.99958434    -0.79600
C729        C  0.50459054  0.30510955  0.04434739     0.80300
N730        N  0.50680890  0.33611202  0.04189099    -0.78000
C731        C  0.49350008  0.34452062  0.00471569     0.82800
N732        N  0.97795090  0.32149003  0.96958320    -0.77900
C733        C  0.97597983  0.29054250  0.97137698     0.82900
N734        N  0.48930983  0.28249213  0.00883085    -0.79600
Fe735      Fe  0.63872696  0.35717517  0.25120008     1.65800
Fe736      Fe  0.64000066  0.28370855  0.24343955     1.73200
Fe737      Fe  0.71502428  0.35908138  0.24854907     1.54400
O738        O  0.71747907  0.39005795  0.19542087    -0.81600
O739        O  0.67695721  0.27803535  0.28238876    -0.82100
O740        O  0.67351510  0.39846201  0.20788863    -0.84100
O741        O  0.66367866  0.38181210  0.31006285    -0.78900
O742        O  0.71824191  0.32704412  0.19732887    -0.80700
O743        O  0.61565912  0.27962288  0.30453425    -0.83400
C744        C  0.69498908  0.39702744  0.32204822     0.97300
C745        C  0.70184829  0.40612631  0.18776410     1.04800
O746        O  0.66470333  0.33350455  0.24759977    -1.12400
O747        O  0.59846373  0.28053931  0.20437401    -0.74800
O748        O  0.61145563  0.33424851  0.19280754    -0.78300
O749        O  0.71788009  0.39409358  0.29969306    -0.79000
C750        C  0.59287638  0.30268926  0.18503814     0.96200
O751        O  0.60067666  0.31927693  0.29575149    -0.77000
O752        O  0.66383051  0.28631997  0.18209340    -0.82200
C753        C  0.70380109  0.29866688  0.30560437     0.98900
C754        C  0.69569720  0.30226320  0.17245456     1.04800
O755        O  0.71741882  0.33067245  0.30217166    -0.77800
C756        C  0.59879120  0.29351379  0.31717711     1.03100
C757        C  0.00315512  0.02832593  0.50179112     0.80300
N758        N  0.96557073  0.49011011  0.50537956    -0.78000
C759        C  0.96596120  0.46034708  0.50317341     0.82800
N760        N  0.99686690  0.46164991  0.50361663    -0.77900
C761        C  0.52711791  0.49199584  0.50608326     0.82900
N762        N  0.53348623  0.02847458  0.50273431    -0.79600
C763        C  0.69741190  0.48232854  0.46927435     0.80300
N764        N  0.66630225  0.48037333  0.47290916    -0.78000
C765        C  0.66197562  0.50142379  0.50223073     0.82800
N766        N  0.69327872  0.02445915  0.52751425    -0.77900
C767        C  0.72303508  0.02345783  0.52779522     0.82900
N768        N  0.72438164  0.50511279  0.49571265    -0.79600
C769        C  0.97625428  0.18896942  0.53047411     0.80300
N770        N  0.97760327  0.15967893  0.53282834    -0.78000
C771        C  0.49607182  0.15343848  0.50102691     0.82800
N772        N  0.51396684  0.17743276  0.46746732    -0.77900
C773        C  0.51265433  0.20667279  0.46463783     0.82900
N774        N  0.49368549  0.21235803  0.49613232    -0.79600
C775        C  0.80170155  0.27248007  0.51778505     0.80300
N776        N  0.78082666  0.26558596  0.47968043    -0.78000
C777        C  0.79016875  0.28914416  0.44439983     0.82800
N778        N  0.82012065  0.31970981  0.44811521    -0.77900
C779        C  0.84116055  0.32674957  0.48583028     0.82900
N780        N  0.83161718  0.30310396  0.52067080    -0.79600
C781        C  0.97390759  0.06091040  0.52268796    -0.12100
C782        C  0.50253020  0.06098002  0.50322122     0.04900
C783        C  0.52957620  0.09211231  0.48481944    -0.07400
C784        C  0.52691611  0.12163132  0.48464459    -0.08200
C785        C  0.49804425  0.12149420  0.50354893    -0.02700
C786        C  0.97163924  0.09065278  0.52359674     0.04100
N787        N  0.94178204  0.08869939  0.54395335     0.66600
H788        H  0.95299400  0.03754186  0.53761898     0.15500
H789        H  0.54778175  0.14490339  0.46949715     0.15200
N790        N  0.55953278  0.09409659  0.46474853     0.74300
O791        O  0.91539014  0.08000960  0.51899857    -0.39100
O792        O  0.93980893  0.09012962  0.58793051    -0.39100
O793        O  0.55998044  0.08848580  0.42156836    -0.39800
O794        O  0.58717331  0.10685319  0.48813187    -0.39900
C795        C  0.59040819  0.52228766  0.52435619    -0.12100
C796        C  0.56114933  0.49343697  0.50594677     0.04900
C797        C  0.56950955  0.96929230  0.49378646    -0.07400
C798        C  0.60163249  0.97122454  0.49323731    -0.08200
C799        C  0.62741164  0.49894677  0.50559336    -0.02700
C800        C  0.62303020  0.52519444  0.52478109     0.04100
N801        N  0.65139362  0.55550768  0.54395084     0.66600
H802        H  0.58801916  0.54288174  0.53909335     0.15500
H803        H  0.60222839  0.94806869  0.48676797     0.15200
N804        N  0.53934071  0.93675858  0.48575905     0.74300
O805        O  0.66124918  0.58385219  0.52382620    -0.39100
O806        O  0.66073243  0.55510263  0.58567933    -0.39100
O807        O  0.52907902  0.92738062  0.44432430    -0.39800
O808        O  0.52319496  0.40905323  0.48846653    -0.39900
C809        C  0.93327885  0.39672178  0.51372013    -0.12100
C810        C  0.93323501  0.42650659  0.49970388     0.04900
C811        C  0.90225517  0.42294045  0.48141124    -0.07400
C812        C  0.87287634  0.39029963  0.47640400    -0.08200
C813        C  0.87317335  0.36069746  0.49019284    -0.02700
C814        C  0.90376682  0.36417393  0.50926073     0.04100
N815        N  0.90579120  0.33476399  0.52222743     0.66600
H816        H  0.95654231  0.39857113  0.52789989     0.15500
H817        H  0.84947949  0.38815181  0.46218164     0.15200
N818        N  0.90021346  0.45202674  0.46681115     0.74300
O819        O  0.90684457  0.31591558  0.49083816    -0.39100
O820        O  0.91023076  0.32968755  0.56462312    -0.39100
O821        O  0.90503283  0.46122064  0.42429688    -0.39800
O822        O  0.88800315  0.46475980  0.49437540    -0.39900
C823        C  0.52069854  0.24500288  0.39609637    -0.12100
C824        C  0.53488468  0.23358409  0.43080659     0.04900
C825        C  0.57069600  0.24680759  0.43155075    -0.07400
C826        C  0.59117527  0.26901113  0.39614581    -0.08200
C827        C  0.57695040  0.27816993  0.35900649    -0.02700
C828        C  0.54144829  0.26704365  0.35985907     0.04100
N829        N  0.52581995  0.27545097  0.32236450     0.66600
H830        H  0.49290929  0.23507771  0.39552585     0.15500
H831        H  0.61904223  0.27816045  0.39634272     0.15200
N832        N  0.58638649  0.23728558  0.46769208     0.74300
O833        O  0.51642364  0.25767335  0.28559389    -0.39100
O834        O  0.51765778  0.29792550  0.32821463    -0.39100
O835        O  0.59376315  0.21443952  0.46001470    -0.39800
O836        O  0.59797142  0.25542993  0.50395840    -0.39900
C837        C  0.72576173  0.47466712  0.39928301    -0.12100
C838        C  0.70189601  0.46007366  0.43620180     0.04900
C839        C  0.68044109  0.42436633  0.43868131    -0.07400
C840        C  0.68147020  0.40401250  0.40304616    -0.08200
C841        C  0.70324747  0.41860660  0.36405602    -0.02700
C842        C  0.72613311  0.45426971  0.36265670     0.04100
N843        N  0.74673237  0.47044586  0.32203513     0.66600
H844        H  0.74216335  0.50221293  0.39691753     0.15500
H845        H  0.66360051  0.37664296  0.40443887     0.15200
N846        N  0.65685199  0.40849613  0.47667959     0.74300
O847        O  0.73255657  0.47235998  0.28470666    -0.39100
O848        O  0.77915847  0.48750688  0.32561377    -0.39100
O849        O  0.62495095  0.39598920  0.46991668    -0.39800
O850        O  0.66725502  0.40234277  0.51467666    -0.39900
C851        C  0.75737610  0.29997554  0.32663100    -0.12100
C852        C  0.72223619  0.28658354  0.33598888     0.04900
C853        C  0.70865170  0.26946163  0.37897244    -0.07400
C854        C  0.73082263  0.26799082  0.41275761    -0.08200
C855        C  0.76647518  0.28369242  0.40459106    -0.02700
C856        C  0.77943985  0.29859855  0.36017529     0.04100
N857        N  0.81526168  0.31372971  0.34925724     0.66600
H858        H  0.76818421  0.31333764  0.29378186     0.15500
H859        H  0.72045218  0.25663584  0.44675288     0.15200
N860        N  0.67341615  0.25685945  0.39092464     0.74300
O861        O  0.82780271  0.29490083  0.34189018    -0.39100
O862        O  0.83337565  0.34549820  0.34172831    -0.39100
O863        O  0.64977476  0.23151561  0.36943378    -0.39800
O864        O  0.66630503  0.26728538  0.42767184    -0.39900
C865        C  0.53944587  0.28044833  0.07490758    -0.12100
C866        C  0.52102779  0.29722017  0.08375515     0.04900
C867        C  0.52142396  0.30907504  0.12938607    -0.07400
C868        C  0.54236109  0.30680591  0.16380718    -0.08200
C869        C  0.56317419  0.29289542  0.15380436    -0.02700
C870        C  0.56047498  0.27815200  0.10967649     0.04100
N871        N  0.58173967  0.26432624  0.09811338     0.66600
H872        H  0.53923036  0.27098298  0.04007992     0.15500
H873        H  0.54413723  0.31808645  0.19783481     0.15200
N874        N  0.50162201  0.32453963  0.14093110     0.74300
O875        O  0.57764275  0.23785554  0.11886527    -0.39100
O876        O  0.60381415  0.27785886  0.06586472    -0.39100
O877        O  0.97124329  0.30609645  0.15611187    -0.39800
O878        O  0.51633123  0.35663031  0.14424069    -0.39900
C879        C  0.68540146  0.28358051  0.09013137    -0.12100
C880        C  0.70538987  0.28980663  0.13083280     0.04900
C881        C  0.72759611  0.27648160  0.13409711    -0.07400
C882        C  0.72724261  0.25499552  0.09851866    -0.08200
C883        C  0.70490134  0.24653563  0.05983740    -0.02700
C884        C  0.68499238  0.26220452  0.05482798     0.04100
N885        N  0.66313431  0.25545706  0.01492245     0.66600
H886        H  0.66840051  0.29390030  0.08703043     0.15500
H887        H  0.74254467  0.24287855  0.10286337     0.15200
N888        N  0.74751163  0.28126684  0.17554830     0.74300
O889        O  0.63085666  0.24000810  0.02012458    -0.39100
O890        O  0.67613306  0.26970036  0.97615861    -0.39100
O891        O  0.73515143  0.25960963  0.20850233    -0.39800
O892        O  0.77890282  0.30437832  0.17653421    -0.39900
C893        C  0.72903254  0.45962706  0.07673480    -0.12100
C894        C  0.76486997  0.47927999  0.08479909     0.04900
C895        C  0.77751549  0.47956845  0.13028169    -0.07400
C896        C  0.75510828  0.45815031  0.16510200    -0.08200
C897        C  0.71997633  0.43584148  0.15581521    -0.02700
C898        C  0.70652133  0.43779645  0.11191939     0.04100
N899        N  0.67089429  0.41554056  0.10115813     0.66600
H900        H  0.71878826  0.45928157  0.04211198     0.15500
H901        H  0.76575978  0.45713150  0.19891373     0.15200
N902        N  0.81338903  0.50029975  0.14116890     0.74300
O903        O  0.64962162  0.42527695  0.10837418    -0.39100
O904        O  0.66158229  0.38852262  0.07837921    -0.39100
O905        O  0.81047012  0.03906313  0.15673075    -0.39800
O906        O  0.83153463  0.48657476  0.14616885    -0.39900
C907        C  0.56566490  0.09388115  0.02497509    -0.12100
C908        C  0.56390292  0.06325628  0.01180638     0.04900
C909        C  0.59477583  0.06501744  0.99724067    -0.07400
C910        C  0.62588373  0.09669226  0.99567043    -0.08200
C911        C  0.62752261  0.12732360  0.00871514    -0.02700
C912        C  0.59671668  0.12544260  0.02369863     0.04100
N913        N  0.59589906  0.15547174  0.03566032     0.66600
H914        H  0.54261895  0.09353576  0.03651136     0.15500
H915        H  0.64902159  0.09719399  0.98413465     0.15200
N916        N  0.59500430  0.03515857  0.98253901     0.74300
O917        O  0.58308126  0.16729794  0.00697880    -0.39100
O918        O  0.60038105  0.16512961  0.07779676    -0.39100
O919        O  0.59306206  0.02833885  0.93942548    -0.39800
O920        O  0.60294023  0.01908453  0.01147995    -0.39900
C921        C  0.52539537  0.43981791  0.01623288    -0.12100
C922        C  0.99619756  0.44144859  0.00224154     0.04900
C923        C  0.96617981  0.41059275  0.98880080    -0.07400
C924        C  0.96617635  0.37964298  0.98880254    -0.08200
C925        C  0.49529179  0.37818733  0.00300541    -0.02700
C926        C  0.52512442  0.40872694  0.01692718     0.04100
N927        N  0.55587001  0.40885571  0.03012108     0.66600
H928        H  0.54875028  0.46284099  0.02680282     0.15500
H929        H  0.94291079  0.35641205  0.97846895     0.15200
N930        N  0.93535813  0.40999537  0.97487603     0.74300
O931        O  0.57435309  0.40654060  0.99898264    -0.39100
O932        O  0.56692451  0.41587571  0.07169965    -0.39100
O933        O  0.93018992  0.41316190  0.93205733    -0.39800
O934        O  0.91080173  0.39982221  0.00361808    -0.39900
C935        C  0.90620432  0.47924923  0.01760580    -0.12100
C936        C  0.93608672  0.00493818  0.01532049     0.04900
C937        C  0.93553304  0.03497258  0.00288322    -0.07400
C938        C  0.90435094  0.03501333  0.00314242    -0.08200
C939        C  0.87352427  0.50810922  0.00560438    -0.02700
C940        C  0.87475083  0.47871383  0.01854536     0.04100
N941        N  0.84396544  0.44755459  0.03054463     0.66600
H942        H  0.90622578  0.45618831  0.02746727     0.15500
H943        H  0.90453992  0.05815418  0.99295338     0.15200
N944        N  0.96625533  0.06575520  0.98962092     0.74300
O945        O  0.82397789  0.42884791  0.99850051    -0.39100
O946        O  0.83925678  0.43645584  0.07219398    -0.39100
O947        O  0.97447851  0.07172083  0.94688786    -0.39800
O948        O  0.98130307  0.08945766  0.01910675    -0.39900
C949        C  0.93360364  0.20493482  0.55845774    -0.12100
C950        C  0.95954901  0.19721437  0.56841051     0.04900
C951        C  0.96957106  0.19740701  0.61522588    -0.07400
C952        C  0.95252505  0.20330887  0.65126262    -0.08200
C953        C  0.92433663  0.20785143  0.64214601    -0.02700
C954        C  0.91569462  0.20994973  0.59500608     0.04100
N955        N  0.88733814  0.21453116  0.58379282     0.66600
H956        H  0.92613673  0.20545712  0.52238250     0.15500
H957        H  0.96012540  0.20216303  0.68709638     0.15200
N958        N  0.99667700  0.19094145  0.62685627     0.74300
O959        O  0.89211870  0.24432328  0.57988847    -0.39100
O960        O  0.85879091  0.18920638  0.57169650    -0.39100
O961        O  0.02677225  0.21570673  0.63384180    -0.39800
O962        O  0.98942649  0.16107334  0.63805428    -0.39900
C963        C  0.80423628  0.03000882  0.89128257    -0.12100
C964        C  0.79726019  0.03820122  0.93542279     0.04900
C965        C  0.78483472  0.06108161  0.93844781    -0.07400
C966        C  0.78272710  0.07770379  0.89774121    -0.08200
C967        C  0.79230341  0.07132547  0.85387565    -0.02700
C968        C  0.80135655  0.04580926  0.85074051     0.04100
N969        N  0.80818738  0.03591127  0.80650908     0.66600
H970        H  0.81252634  0.01149128  0.88824278     0.15500
H971        H  0.77589320  0.09727204  0.90099342     0.15200
N972        N  0.77707232  0.06982313  0.98287226     0.74300
O973        O  0.83899486  0.04740786  0.79389875    -0.39100
O974        O  0.78435424  0.00990939  0.78639735    -0.39100
O975        O  0.79977445  0.09594176  0.00413984    -0.39800
O976        O  0.74635359  0.05454240  0.99738943    -0.39900
C977        C  0.94996298  0.25545042  0.84891395    -0.12100
C978        C  0.92273452  0.22192737  0.85754353     0.04900
C979        C  0.91572918  0.20977154  0.90426832    -0.07400
C980        C  0.93472863  0.23187593  0.94124327    -0.08200
C981        C  0.96003193  0.26617788  0.93227800    -0.02700
C982        C  0.96839456  0.27748818  0.88556546     0.04100
N983        N  0.99561287  0.31140812  0.87480432     0.66600
H984        H  0.95631396  0.26511360  0.81324776     0.15500
H985        H  0.92813805  0.22288116  0.97713717     0.15200
N986        N  0.88749571  0.17639755  0.91500367     0.74300
O987        O  0.02660121  0.31886426  0.87862706    -0.39100
O988        O  0.98876676  0.33256551  0.85614060    -0.39100
O989        O  0.89321470  0.15368985  0.93071312    -0.39800
O990        O  0.85707181  0.17093055  0.91447047    -0.39900
C991        C  0.78654084  0.09986624  0.59879482    -0.12100
C992        C  0.79624555  0.08423144  0.63339154     0.04900
C993        C  0.78512565  0.04925043  0.62956573    -0.07400
C994        C  0.76298833  0.03019039  0.59270445    -0.08200
C995        C  0.75137710  0.04546580  0.56004144    -0.02700
C996        C  0.76430863  0.08088667  0.56222635     0.04100
N997        N  0.75425978  0.09767535  0.52843584     0.66600
H998        H  0.79462180  0.12669225  0.60194324     0.15500
H999        H  0.75314123  0.00291288  0.59129444     0.15200
N1000       N  0.79367786  0.03223707  0.66487564     0.74300
O1001       O  0.74292683  0.11648425  0.54187696    -0.39100
O1002       O  0.76023885  0.09676823  0.48544479    -0.39100
O1003       O  0.76996680  0.00712717  0.68692226    -0.39800
O1004       O  0.82438773  0.03886372  0.66893420    -0.39900
C1005       C  0.77999253  0.19509360  0.59463547    -0.12100
C1006       C  0.78449067  0.20940665  0.63944238     0.04900
C1007       C  0.78872373  0.24233724  0.64326503    -0.07400
C1008       C  0.79283419  0.26177344  0.60295823    -0.08200
C1009       C  0.79129476  0.24862695  0.55823550    -0.02700
C1010       C  0.78296409  0.21432931  0.55400732     0.04100
N1011       N  0.78093579  0.19994106  0.50894150     0.66600
H1012       H  0.77733780  0.17018420  0.59104163     0.15500
H1013       H  0.79806889  0.28773052  0.60666994     0.15200
N1014       N  0.79040840  0.25693498  0.68815687     0.74300
O1015       O  0.80811564  0.20556925  0.48848586    -0.39100
O1016       O  0.75191331  0.17878482  0.49185173    -0.39100
O1017       O  0.81718555  0.28428241  0.70016200    -0.39800
O1018       O  0.76360430  0.24500229  0.71303085    -0.39900
C1019       C  0.76317401  0.22667264  0.91256199    -0.12100
C1020       C  0.74327837  0.19612002  0.93832490     0.04900
C1021       C  0.74585062  0.16729414  0.92713711    -0.07400
C1022       C  0.76566323  0.16860510  0.88887273    -0.08200
C1023       C  0.78380086  0.19827976  0.86142964    -0.02700
C1024       C  0.78347934  0.22792695  0.87429097     0.04100
N1025       N  0.80102252  0.25833176  0.84645469     0.66600
H1026       H  0.76147920  0.24905334  0.92047029     0.15500
H1027       H  0.76626695  0.14579925  0.87974694     0.15200
N1028       N  0.72825445  0.13630873  0.95401873     0.74300
O1029       O  0.78537348  0.26343108  0.81341012    -0.39100
O1030       O  0.83272734  0.27906292  0.85294368    -0.39100
O1031       O  0.70778040  0.10850582  0.93399273    -0.39800
O1032       O  0.73694268  0.13589276  0.99608712    -0.39900
Fe1033     Fe  0.85979155  0.71821396  0.74514646     1.65800
Fe1034     Fe  0.78572393  0.64269355  0.74451762     1.73200
Fe1035     Fe  0.86225358  0.64625610  0.74842037     1.54400
O1036       O  0.90196994  0.68412429  0.70941247    -0.81600
O1037       O  0.78353333  0.61392457  0.80350875    -0.79900
O1038       O  0.88385617  0.71842762  0.68247534    -0.84100
O1039       O  0.90098046  0.72282922  0.78268991    -0.78900
O1040       O  0.83908460  0.62066801  0.68601768    -0.80700
O1041       O  0.78215639  0.67606929  0.78923842    -0.83400
C1042       C  0.90217051  0.70412465  0.81495864     0.97300
C1043       C  0.90230967  0.70463490  0.67857746     1.04800
O1044       O  0.83554503  0.66874155  0.74601412    -1.12400
O1045       O  0.78431750  0.66941639  0.68515597    -0.74800
O1046       O  0.82282541  0.72185084  0.70755280    -0.78300
O1047       O  0.88555088  0.67165893  0.81116725    -0.79000
C1048       C  0.79913113  0.70169743  0.68012325     0.96200
O1049       O  0.83564596  0.71755493  0.80773419    -0.77000
O1050       O  0.78456350  0.60691622  0.69974738    -0.82200
C1051       C  0.80038028  0.59880686  0.81113108     0.98900
C1052       C  0.80717182  0.60564728  0.67487519     1.04800
O1053       O  0.82674262  0.60536833  0.78743880    -0.77800
C1054       C  0.80348845  0.69912337  0.81677901     1.03100
C1055       C  0.96991014  0.50768978  0.00298032     0.80300
N1056       N  0.00129296  0.53696488  0.00252915    -0.78000
C1057       C  0.53106866  0.53607650  0.00166896     0.82800
N1058       N  0.52904120  0.50509631  0.00163829    -0.77900
C1059       C  0.99567584  0.97005304  0.01373883     0.82900
N1060       N  0.96657890  0.97217805  0.01435123    -0.79600
C1061       C  0.80295198  0.52422631  0.97167655     0.80300
N1062       N  0.78125207  0.00917196  0.01241343    -0.78000
C1063       C  0.78765353  0.99433153  0.04963315     0.82800
N1064       N  0.81734460  0.99323805  0.05109392    -0.77900
C1065       C  0.84082573  0.00723681  0.01583927     0.82900
N1066       N  0.83274488  0.52339425  0.97102055    -0.79600
C1067       C  0.72061611  0.69681195  0.97005643     0.80300
N1068       N  0.68899645  0.66785870  0.97175121    -0.78000
C1069       C  0.66356736  0.66536990  0.99993019     0.82800
N1070       N  0.67020808  0.69278851  0.02661673    -0.77900
C1071       C  0.70176516  0.72199218  0.02530045     0.82900
N1072       N  0.72688434  0.72387850  0.99707446    -0.79600
C1073       C  0.50013191  0.79717783  0.05097499     0.80300
N1074       N  0.50145172  0.82780989  0.05211743    -0.78000
C1075       C  0.48819802  0.83767863  0.01644536     0.82800
N1076       N  0.97335654  0.81628923  0.97953164    -0.77900
C1077       C  0.97209167  0.78570694  0.97770453     0.82900
N1078       N  0.48568198  0.77632654  0.01346287    -0.79600
Fe1079     Fe  0.63910422  0.85388260  0.25409430     1.65800
Fe1080     Fe  0.64433401  0.78197671  0.24062443     1.73200
Fe1081     Fe  0.71825624  0.86026017  0.24837638     1.54400
O1082       O  0.71935379  0.89501831  0.20289153    -0.81600
O1083       O  0.67952403  0.77712132  0.28466067    -0.82100
O1084       O  0.66899618  0.89321589  0.20559092    -0.84100
O1085       O  0.66708685  0.88221535  0.30891239    -0.78900
O1086       O  0.72312893  0.83416173  0.19062946    -0.80700
O1087       O  0.61496374  0.77370220  0.29777786    -0.83400
C1088       C  0.69687190  0.89388541  0.32584952     0.97300
C1089       C  0.69966445  0.90574623  0.19022800     1.04800
O1090       O  0.66723761  0.83207078  0.24749199    -1.12400
O1091       O  0.60476135  0.77796757  0.19659363    -0.74800
O1092       O  0.60695046  0.82787790  0.20091246    -0.78300
O1093       O  0.71967454  0.88926082  0.30669010    -0.79000
C1094       C  0.59385209  0.79798591  0.18521666     0.96200
O1095       O  0.60570407  0.81728730  0.30362373    -0.77000
O1096       O  0.67188019  0.78625393  0.18244853    -0.82200
C1097       C  0.70864598  0.79811616  0.30278120     0.98900
C1098       C  0.70238299  0.80661818  0.16902947     1.04800
O1099       O  0.72421649  0.82967053  0.29414638    -0.77800
C1100       C  0.60091328  0.78835509  0.31739276     1.03100
C1101       C  0.99552816  0.52082157  0.50785753     0.80300
N1102       N  0.97293540  0.99780820  0.49974562    -0.78000
C1103       C  0.97280431  0.96781448  0.49841814     0.82800
N1104       N  0.00342242  0.96866846  0.49951830    -0.77900
C1105       C  0.53392143  0.99867475  0.50162013     0.82900
N1106       N  0.52606225  0.52135269  0.50845938    -0.79600
C1107       C  0.69853370  0.97803879  0.47413386     0.80300
N1108       N  0.66882880  0.97904926  0.47436892    -0.78000
C1109       C  0.66592851  0.00227455  0.50074400     0.82800
N1110       N  0.68942107  0.52429917  0.52829696    -0.77900
C1111       C  0.72052027  0.52613480  0.52531714     0.82900
N1112       N  0.72552399  0.00023956  0.50106363    -0.79600
C1113       C  0.97493810  0.68627837  0.53037753     0.80300
N1114       N  0.97357708  0.65563385  0.53442916    -0.78000
C1115       C  0.49140709  0.64740366  0.50412357     0.82800
N1116       N  0.51098365  0.67049724  0.47061062    -0.77900
C1117       C  0.51305951  0.70131806  0.46672874     0.82900
N1118       N  0.49475260  0.70905336  0.49663826    -0.79600
C1119       C  0.80942648  0.78031630  0.51753997     0.80300
N1120       N  0.78823369  0.77220731  0.47969123    -0.78000
C1121       C  0.79681696  0.79482574  0.44346158     0.82800
N1122       N  0.82649472  0.82583559  0.44581420    -0.77900
C1123       C  0.84789793  0.83407757  0.48344858     0.82900
N1124       N  0.83897911  0.81125796  0.51925725    -0.79600
C1125       C  0.96547527  0.55365289  0.52492689    -0.12100
C1126       C  0.49496775  0.55351666  0.50887539     0.04900
C1127       C  0.52345296  0.58488702  0.49356336    -0.07400
C1128       C  0.52166313  0.61476264  0.49351827    -0.08200
C1129       C  0.49206982  0.61488383  0.50851160    -0.02700
C1130       C  0.96394819  0.58389962  0.52531744     0.04100
N1131       N  0.93328709  0.58241730  0.54158352     0.66600
H1132       H  0.94336169  0.53008779  0.53742137     0.15500
H1133       H  0.54388832  0.63824560  0.48108129     0.15200
N1134       N  0.55403199  0.58680672  0.47594101     0.74300
O1135       O  0.90856108  0.57449717  0.51360909    -0.39100
O1136       O  0.92912652  0.58445578  0.58491839    -0.39100
O1137       O  0.55551982  0.58018182  0.43342549    -0.39800
O1138       O  0.58107069  0.60005419  0.50065144    -0.39900
C1139       C  0.59845040  0.02972105  0.51121188    -0.12100
C1140       C  0.56747502  0.99896672  0.50224032     0.04900
C1141       C  0.56529283  0.46690267  0.48761357    -0.07400
C1142       C  0.59796324  0.46989682  0.48757440    -0.08200
C1143       C  0.63254983  0.00205829  0.50148526    -0.02700
C1144       C  0.63059297  0.03153851  0.51091890     0.04100
N1145       N  0.66104560  0.06397709  0.51812805     0.66600
H1146       H  0.59794833  0.05288096  0.51798941     0.15500
H1147       H  0.60022527  0.44927682  0.47267189     0.15200
N1148       N  0.53697822  0.43732233  0.46688250     0.74300
O1149       O  0.68054975  0.07945283  0.48381765    -0.39100
O1150       O  0.66494477  0.07975422  0.55598092    -0.39100
O1151       O  0.52891307  0.43839552  0.42468583    -0.39800
O1152       O  0.52705259  0.91517754  0.51881201    -0.39900
C1153       C  0.93970484  0.90456545  0.51124790    -0.12100
C1154       C  0.93989898  0.93411692  0.49558471     0.04900
C1155       C  0.90914808  0.93033376  0.47607447    -0.07400
C1156       C  0.87981300  0.89757307  0.47117373    -0.08200
C1157       C  0.87991081  0.86817390  0.48668239    -0.02700
C1158       C  0.91026996  0.87201340  0.50720785     0.04100
N1159       N  0.91210760  0.84292563  0.52251162     0.66600
H1160       H  0.96270265  0.90659977  0.52668809     0.15500
H1161       H  0.85655140  0.89520593  0.45607035     0.15200
N1162       N  0.90722156  0.95932532  0.46064185     0.74300
O1163       O  0.91606410  0.82478153  0.49282282    -0.39100
O1164       O  0.91410372  0.83789327  0.56573199    -0.39100
O1165       O  0.90977092  0.96672886  0.41752415    -0.39800
O1166       O  0.89729330  0.97384898  0.48875893    -0.39900
C1167       C  0.52888099  0.74946472  0.40916389    -0.12100
C1168       C  0.53703758  0.72682671  0.43213151     0.04900
C1169       C  0.56755246  0.72737914  0.41963371    -0.07400
C1170       C  0.58774836  0.74840201  0.38323187    -0.08200
C1171       C  0.57915916  0.76991347  0.35857458    -0.02700
C1172       C  0.54957266  0.77081304  0.37219097     0.04100
N1173       N  0.53870080  0.79090103  0.34659644     0.66600
H1174       H  0.50541599  0.74924050  0.41818924     0.15500
H1175       H  0.61051596  0.74749436  0.37378900     0.15200
N1176       N  0.57877950  0.70696072  0.44377588     0.74300
O1177       O  0.52610522  0.78190754  0.30598756    -0.39100
O1178       O  0.53772915  0.81505569  0.36657512    -0.39100
O1179       O  0.58524266  0.68720463  0.42094250    -0.39800
O1180       O  0.58663125  0.71202245  0.48671538    -0.39900
C1181       C  0.73154311  0.96511972  0.41569107    -0.12100
C1182       C  0.70171965  0.95379184  0.44321597     0.04900
C1183       C  0.67374798  0.92037725  0.43700101    -0.07400
C1184       C  0.67470453  0.90020266  0.40120070    -0.08200
C1185       C  0.70286490  0.91268328  0.37032358    -0.02700
C1186       C  0.73219709  0.94489946  0.37898727     0.04100
N1187       N  0.76120951  0.95878636  0.34823024     0.66600
H1188       H  0.75334366  0.99074744  0.42024844     0.15500
H1189       H  0.65223886  0.87506315  0.39582614     0.15200
N1190       N  0.64370327  0.90686131  0.46590350     0.74300
O1191       O  0.76084136  0.97358562  0.31073525    -0.39100
O1192       O  0.78892793  0.96086946  0.36180768    -0.39100
O1193       O  0.61495671  0.89890155  0.44776456    -0.39800
O1194       O  0.64480414  0.89758150  0.50742259    -0.39900
C1195       C  0.76208316  0.79928451  0.32416471    -0.12100
C1196       C  0.72726457  0.78710849  0.33446999     0.04900
C1197       C  0.71444697  0.77252124  0.37890396    -0.07400
C1198       C  0.73700108  0.77221364  0.41299974    -0.08200
C1199       C  0.77252126  0.78746656  0.40391603    -0.02700
C1200       C  0.78470768  0.79974557  0.35831242     0.04100
N1201       N  0.82029429  0.81404749  0.34666467     0.66600
H1202       H  0.77230555  0.81061383  0.29006965     0.15500
H1203       H  0.72725984  0.76299037  0.44801033     0.15200
N1204       N  0.67997638  0.76224378  0.39201869     0.74300
O1205       O  0.83221435  0.79458247  0.34023252    -0.39100
O1206       O  0.83855953  0.84546589  0.33686727    -0.39100
O1207       O  0.65897978  0.73120275  0.40118965    -0.39800
O1208       O  0.67289450  0.78466732  0.40387881    -0.39900
C1209       C  0.53906913  0.77564750  0.07575385    -0.12100
C1210       C  0.51763017  0.78856671  0.08807472     0.04900
C1211       C  0.51678100  0.79726223  0.13509735    -0.07400
C1212       C  0.53983529  0.79669191  0.16745841    -0.08200
C1213       C  0.56381145  0.78726408  0.15409619    -0.02700
C1214       C  0.56200293  0.77471659  0.10864553     0.04100
N1215       N  0.58572681  0.76459116  0.09407116     0.66600
H1216       H  0.53976605  0.76851060  0.03978932     0.15500
H1217       H  0.54033686  0.80555982  0.20280825     0.15200
N1218       N  0.49325780  0.80759242  0.15022037     0.74300
O1219       O  0.58061891  0.73540123  0.10503550    -0.39100
O1220       O  0.61241757  0.78525769  0.07151593    -0.39100
O1221       O  0.96267037  0.78516139  0.16050209    -0.39800
O1222       O  0.50444707  0.83830776  0.16131633    -0.39900
C1223       C  0.69338276  0.79102366  0.08575144    -0.12100
C1224       C  0.71275091  0.79579999  0.12668782     0.04900
C1225       C  0.73280614  0.78012507  0.13044998    -0.07400
C1226       C  0.73106678  0.75797504  0.09502155    -0.08200
C1227       C  0.70907431  0.75080830  0.05626006    -0.02700
C1228       C  0.69136339  0.76869270  0.05068955     0.04100
N1229       N  0.67015181  0.76334007  0.01047248     0.66600
H1230       H  0.67777203  0.80284369  0.08261309     0.15500
H1231       H  0.74479943  0.74429267  0.09963001     0.15200
N1232       N  0.75161916  0.78315369  0.17245870     0.74300
O1233       O  0.63779724  0.74775271  0.01477577    -0.39100
O1234       O  0.68378662  0.77884640  0.97261687    -0.39100
O1235       O  0.73680347  0.76284098  0.20630503    -0.39800
O1236       O  0.78387383  0.80301931  0.17342223    -0.39900
C1237       C  0.72765114  0.95223948  0.07488265    -0.12100
C1238       C  0.76156349  0.97738187  0.08685799     0.04900
C1239       C  0.77103153  0.98327402  0.13444270    -0.07400
C1240       C  0.74778102  0.96217657  0.16882498    -0.08200
C1241       C  0.71527208  0.93448862  0.15663372    -0.02700
C1242       C  0.70458062  0.93040136  0.10941750     0.04100
N1243       N  0.67234305  0.90174217  0.09540279     0.66600
H1244       H  0.72009082  0.94752464  0.03829751     0.15500
H1245       H  0.75638202  0.96547467  0.20503278     0.15200
N1246       N  0.80482225  0.00944938  0.14817775     0.74300
O1247       O  0.64756928  0.90596078  0.08444552    -0.39100
O1248       O  0.67018423  0.87343010  0.08751514    -0.39100
O1249       O  0.82531574  0.53084152  0.15376944    -0.39800
O1250       O  0.82720834  0.00169326  0.15904190    -0.39900
C1251       C  0.56737324  0.59910523  0.01722777    -0.12100
C1252       C  0.56530080  0.56882354  0.00151069     0.04900
C1253       C  0.59602256  0.57073442  0.98598369    -0.07400
C1254       C  0.62735533  0.60211658  0.98634674    -0.08200
C1255       C  0.62943138  0.63247863  0.00179995    -0.02700
C1256       C  0.59874570  0.63049968  0.01764968     0.04100
N1257       N  0.59849770  0.66025344  0.03271807     0.66600
H1258       H  0.54438713  0.59854806  0.02960000     0.15500
H1259       H  0.65031685  0.60259828  0.97403223     0.15200
N1260       N  0.59583382  0.54138474  0.96800953     0.74300
O1261       O  0.58787739  0.67472897  0.00499421    -0.39100
O1262       O  0.60163988  0.66742164  0.07579840    -0.39100
O1263       O  0.58860642  0.53355096  0.92540893    -0.39800
O1264       O  0.60807248  0.52671505  0.99240820    -0.39900
C1265       C  0.51857859  0.93214480  0.03836076    -0.12100
C1266       C  0.99326101  0.93596735  0.01459886     0.04900
C1267       C  0.96614250  0.90705610  0.99213922    -0.07400
C1268       C  0.96512278  0.87561864  0.99317023    -0.08200
C1269       C  0.49048039  0.87174245  0.01680045    -0.02700
C1270       C  0.51746248  0.90060739  0.03977419     0.04100
N1271       N  0.54478824  0.89888405  0.06305049     0.66600
H1272       H  0.53962090  0.95393630  0.05582595     0.15500
H1273       H  0.94416506  0.85398756  0.97532970     0.15200
N1274       N  0.94005589  0.90941549  0.96651301     0.74300
O1275       O  0.56602770  0.89486303  0.03936684    -0.39100
O1276       O  0.55083183  0.90659699  0.10586176    -0.39100
O1277       O  0.94423685  0.91681433  0.92336485    -0.39800
O1278       O  0.91085896  0.89871073  0.98484862    -0.39900
C1279       C  0.90480156  0.97592908  0.02922130    -0.12100
C1280       C  0.93716169  0.50877638  0.00407435     0.04900
C1281       C  0.93580328  0.53836570  0.99157039    -0.07400
C1282       C  0.90420789  0.53760179  0.99197554    -0.08200
C1283       C  0.87327847  0.00601150  0.01687872    -0.02700
C1284       C  0.87380177  0.97633960  0.03050516     0.04100
N1285       N  0.84277492  0.94587025  0.04379684     0.66600
H1286       H  0.90424279  0.95259856  0.03927056     0.15500
H1287       H  0.90378398  0.56050591  0.98222541     0.15200
N1288       N  0.96611153  0.56946468  0.97811566     0.74300
O1289       O  0.82389613  0.92500631  0.01272141    -0.39100
O1290       O  0.83693626  0.93745158  0.08652728    -0.39100
O1291       O  0.97371487  0.57584322  0.93525191    -0.39800
O1292       O  0.98146298  0.59291453  0.00787109    -0.39900
C1293       C  0.92899914  0.69796416  0.55601943    -0.12100
C1294       C  0.95885766  0.69670077  0.56629973     0.04900
C1295       C  0.97336471  0.70541261  0.61140365    -0.07400
C1296       C  0.95650140  0.71251403  0.64653969    -0.08200
C1297       C  0.92488188  0.71075396  0.63775099    -0.02700
C1298       C  0.91191605  0.70502609  0.59144864     0.04100
N1299       N  0.87999045  0.70326148  0.58087844     0.66600
H1300       H  0.91817330  0.69208088  0.52095151     0.15500
H1301       H  0.96686955  0.71691508  0.68188878     0.15200
N1302       N  0.00458290  0.70583026  0.62243210     0.74300
O1303       O  0.87919958  0.73046597  0.57570883    -0.39100
O1304       O  0.85381173  0.67498192  0.57038458    -0.39100
O1305       O  0.03273844  0.73391336  0.62401878    -0.39800
O1306       O  0.00344169  0.67876484  0.63602672    -0.39900
C1307       C  0.79971384  0.52981446  0.88600955    -0.12100
C1308       C  0.79430744  0.53867439  0.93068262     0.04900
C1309       C  0.78407673  0.56320930  0.93474462    -0.07400
C1310       C  0.78299476  0.58089324  0.89453698    -0.08200
C1311       C  0.79133378  0.57390150  0.85018143    -0.02700
C1312       C  0.79783574  0.54670713  0.84599802     0.04100
N1313       N  0.80322089  0.53627880  0.80125225     0.66600
H1314       H  0.80645207  0.51018834  0.88218951     0.15500
H1315       H  0.77797704  0.60167035  0.89854374     0.15200
N1316       N  0.77765296  0.57248932  0.97965477     0.74300
O1317       O  0.83353962  0.54611721  0.78785107    -0.39100
O1318       O  0.77821352  0.51115919  0.78128589    -0.39100
O1319       O  0.80026060  0.59987513  0.99857057    -0.39800
O1320       O  0.74763427  0.55642729  0.99661687    -0.39900
C1321       C  0.94633197  0.75795004  0.85213630    -0.12100
C1322       C  0.92364604  0.72241711  0.85667397     0.04900
C1323       C  0.91965076  0.70720524  0.90143333    -0.07400
C1324       C  0.93689910  0.72789123  0.94049392    -0.08200
C1325       C  0.95749724  0.76369654  0.93582570    -0.02700
C1326       C  0.96281607  0.77845918  0.89080723     0.04100
N1327       N  0.98500718  0.81443466  0.88361946     0.66600
H1328       H  0.95077677  0.77042737  0.81818553     0.15500
H1329       H  0.93270442  0.71612599  0.97492282     0.15200
N1330       N  0.89669990  0.67137850  0.90841319     0.74300
O1331       O  0.01730294  0.82737212  0.88476871    -0.39100
O1332       O  0.97244928  0.83263693  0.87143766    -0.39100
O1333       O  0.90872338  0.65198421  0.91552187    -0.39800
O1334       O  0.86488145  0.65995404  0.91397616    -0.39900
C1335       C  0.78149615  0.60265476  0.59812368    -0.12100
C1336       C  0.79449452  0.58810116  0.62969221     0.04900
C1337       C  0.78634496  0.55415816  0.62294823    -0.07400
C1338       C  0.76388923  0.53490728  0.58641195    -0.08200
C1339       C  0.74910911  0.54895267  0.55682620    -0.02700
C1340       C  0.75912091  0.58362040  0.56171105     0.04100
N1341       N  0.74625480  0.59955910  0.53064040     0.66600
H1342       H  0.78743522  0.62878916  0.60350023     0.15500
H1343       H  0.75622545  0.50817117  0.58304936     0.15200
N1344       N  0.79784350  0.53797423  0.65549483     0.74300
O1345       O  0.73587636  0.61849815  0.54686255    -0.39100
O1346       O  0.74932215  0.59826796  0.48684338    -0.39100
O1347       O  0.77617800  0.51379959  0.68101865    -0.39800
O1348       O  0.82828653  0.54368714  0.65293953    -0.39900
C1349       C  0.78510000  0.70280275  0.59533178    -0.12100
C1350       C  0.79130682  0.71769984  0.63995156     0.04900
C1351       C  0.79830109  0.75170488  0.64358392    -0.07400
C1352       C  0.80313053  0.77114099  0.60309840    -0.08200
C1353       C  0.79978298  0.75715492  0.55853510    -0.02700
C1354       C  0.78916300  0.72221607  0.55460538     0.04100
N1355       N  0.78593147  0.70716020  0.50968892     0.66600
H1356       H  0.78010305  0.67685920  0.59174599     0.15500
H1357       H  0.81004017  0.79767782  0.60653415     0.15200
N1358       N  0.80173351  0.76721272  0.68831600     0.74300
O1359       O  0.81261548  0.71353859  0.48717457    -0.39100
O1360       O  0.75665125  0.68455167  0.49501056    -0.39100
O1361       O  0.82916823  0.79448506  0.69868331    -0.39800
O1362       O  0.77593364  0.75595198  0.71505768    -0.39900
C1363       C  0.77066703  0.73056881  0.91558223    -0.12100
C1364       C  0.74722268  0.69907198  0.93716359     0.04900
C1365       C  0.74711890  0.66929425  0.92305526    -0.07400
C1366       C  0.76751075  0.67091215  0.88541319    -0.08200
C1367       C  0.78891645  0.70169496  0.86166671    -0.02700
C1368       C  0.79159710  0.73204650  0.87803685     0.04100
N1369       N  0.81308907  0.76382165  0.85449442     0.66600
H1370       H  0.77131105  0.75376903  0.92597981     0.15500
H1371       H  0.76595351  0.64751963  0.87371186     0.15200
N1372       N  0.72620807  0.63706372  0.94617185     0.74300
O1373       O  0.80198562  0.77186159  0.81879011    -0.39100
O1374       O  0.84403090  0.78266356  0.86721706    -0.39100
O1375       O  0.70641963  0.61088226  0.92248250    -0.39800
O1376       O  0.73110289  0.63377253  0.98906921    -0.39900
loop_ 
_geom_bond_atom_site_label_1 
_geom_bond_atom_site_label_2 
_geom_bond_distance 
_geom_bond_site_symmetry_2 
_ccdc_geom_bond_type 
Fe1          O17   2.091       .  S
Fe1           O7   2.058       .  S
Fe1          O14   2.047       .  S
Fe1           O6   2.102       .  S
Fe1          O12   1.940       .  S
Fe2           O5   2.094       .  S
Fe2           O9   2.058       .  S
Fe2          O13   2.099       .  S
Fe2          O18   2.060       .  S
Fe2          O12   1.939       .  S
Fe3          O21   2.044       .  S
Fe3           O8   2.087       .  S
Fe3          O15   2.092       .  S
Fe3           O4   2.050       .  S
Fe3          O12   1.939       .  S
O4           C11   1.266       .  A
O5           C19   1.272       .  A
O6           C11   1.276       .  A
O7           C10   1.268       .  A
O8           C20   1.277       .  A
O9           C22   1.272       .  A
C10          O15   1.276       .  A
C10         C290   1.483       .  S
C11         C265   1.487       .  S
O13          C16   1.273       .  A
O14          C16   1.264       .  A
C16         C318   1.486       .  S
O17          C22   1.278       .  A
O18          C20   1.271       .  A
C19          O21   1.263       .  A
C19         C279   1.483       .  S
C20         C304   1.469       .  S
C22         C335   1.477       .  S
C23         C248   1.502       .  S
C23          N24   1.361       .  A
C23         N372   1.363   1_545  A
N24         C713   1.362       .  A
C25         C220   1.503       .  S
C25          N26   1.364   1_545  A
C25         N712   1.362       .  A
N26        C1059   1.365   1_455  A
C27         C234   1.503       .  S
C27          N28   1.362       .  A
C27        N1058   1.364       .  A
N28         C367   1.363       .  A
C29         C276   1.478       .  S
C29          N34   1.362       .  A
C29         N374   1.357   1_556  A
N30          C31   1.362       .  A
N30         C373   1.361   1_554  A
C31         C206   1.485       .  S
C31          N32   1.363       .  A
N32          C33   1.358       .  A
C33         C251   1.488       .  S
C33         N378   1.356   1_554  A
N34         C377   1.359   1_556  A
C35         C332   1.488       .  S
C35          N36   1.363       .  A
C35          N40   1.361       .  A
N36          C37   1.360   1_556  A
C37         C223   1.502       .  S
C37          N38   1.361       .  A
N38          C39   1.363       .  A
C39         C195   1.479       .  S
C39          N40   1.360   1_554  A
C41         C178   1.480       .  S
C41          N42   1.362       .  A
C41          N46   1.358   1_455  A
N42          C43   1.359   1_455  A
C43         C237   1.491       .  S
C43         N732   1.360   1_554  A
N44          C45   1.364       .  A
N44         C731   1.360   1_556  A
C45         C293   1.479       .  S
C45         N734   1.357   1_556  A
N46         C733   1.357   1_554  A
Fe47         O63   2.121       .  S
Fe47         O53   2.015       .  S
Fe47         O60   2.017       .  S
Fe47         O52   2.119       .  S
Fe47         O58   1.955       .  S
Fe48         O51   2.116       .  S
Fe48         O55   2.020       .  S
Fe48         O59   2.113       .  S
Fe48         O64   2.028       .  S
Fe48         O58   1.953       .  S
Fe49         O67   2.029       .  S
Fe49         O54   2.128       .  S
Fe49         O61   2.123       .  S
Fe49         O50   2.022       .  S
Fe49         O58   1.951       .  S
O50          C57   1.263       .  A
O51          C65   1.275       .  A
O52          C57   1.278       .  A
O53          C56   1.261       .  A
O54          C66   1.282       .  A
O55          C68   1.266       .  A
C56          O61   1.279       .  A
C56         C153   1.476       .  S
C57         C209   1.478       .  S
O59          C62   1.275       .  A
O60          C62   1.260       .  A
C62         C181   1.472       .  S
O63          C68   1.279       .  A
O64          C66   1.266       .  A
C65          O67   1.261       .  A
C65         C164   1.479       .  S
C66         C192   1.480       .  S
C68         C139   1.475       .  S
C69         C782   1.498       .  S
C69         N414   1.363   1_545  A
C69         N762   1.365       .  A
N70          C71   1.363       .  A
N70         C413   1.363       .  A
C71         C122   1.497       .  S
C71          N72   1.363       .  A
N72         C761   1.360       .  A
C73         C108   1.501       .  S
C73         N760   1.360   1_455  A
C73         N418   1.361       .  A
N74         C757   1.365       .  A
N74         C417   1.365   1_545  A
C75         C150   1.477       .  S
C75          N76   1.363       .  A
C75          N80   1.356       .  A
N76          C77   1.363       .  A
C77         C111   1.506       .  S
C77         N422   1.362       .  A
N78          C79   1.364       .  A
N78         C421   1.362       .  A
C79         C307   1.476       .  S
C79         N424   1.357       .  A
N80         C423   1.357       .  A
C81         C262   1.477       .  S
C81          N82   1.364       .  A
C81         N774   1.358       .  A
N82         C771   1.361       .  A
C83          C97   1.500       .  S
C83          N84   1.360   1_655  A
C83         N770   1.361       .  A
N84          C85   1.361       .  A
C85         C136   1.474       .  S
C85          N86   1.357   1_455  A
N86         C769   1.358       .  A
C87         C321   1.480       .  S
C87          N88   1.362       .  A
C87          N92   1.361       .  A
N88          C89   1.364       .  A
C89         C167   1.486       .  S
C89          N90   1.362       .  A
N90          C91   1.357       .  A
C91         C125   1.487       .  S
C91          N92   1.357       .  A
C93          C98   1.407       .  A
C93         C782   1.408       .  A
C93         H100   1.084       .  S
C94         C757   1.498       .  S
C94          C95   1.414       .  A
C94         C781   1.408   1_455  A
C95          C96   1.406       .  A
C95         N102   1.429       .  S
C96          C97   1.408   1_455  A
C96         H101   1.083       .  S
C97         C786   1.415       .  A
C98         C785   1.415       .  A
C98          N99   1.429       .  S
N99         O103   1.262       .  A
N99         O104   1.262       .  A
N102        O106   1.262       .  A
N102        O105   1.262       .  A
C107        C108   1.406       .  A
C107        C112   1.407       .  A
C107        H114   1.084       .  S
C108        C453   1.416       .  A
C109        C110   1.404       .  A
C109        C452   1.420       .  A
C109        N116   1.429       .  S
C110        C455   1.405   1_565  A
C110        H115   1.084       .  S
C111        C112   1.419       .  A
C111        C454   1.410       .  A
C112        N113   1.429       .  S
N113        O117   1.262       .  A
N113        O118   1.262       .  A
N116        O464   1.262       .  A
N116        O119   1.262       .  A
O120        N460   1.262       .  A
C121        C122   1.408       .  A
C121        C126   1.404       .  A
C121        H128   1.084       .  S
C122        C123   1.417       .  A
C123        C124   1.405       .  A
C123        N130   1.429       .  S
C124        C125   1.404       .  A
C124        H129   1.084       .  S
C125        C126   1.411       .  A
C126        N127   1.430       .  S
N127        O131   1.262       .  A
N127        O132   1.262       .  A
N130        O134   1.262       .  A
N130        O133   1.262       .  A
C135        C136   1.406       .  A
C135        C140   1.408       .  A
C135        H142   1.094   1_455  S
C136        C137   1.406       .  A
C137        C138   1.390       .  A
C137        N144   1.429       .  S
C138        C139   1.400       .  A
C138        H143   1.103       .  S
C139        C140   1.411       .  A
C140        N141   1.428       .  S
N141        O145   1.262       .  A
N141        O146   1.262       .  A
N144        O148   1.262       .  A
N144        O147   1.262       .  A
C149        C150   1.407       .  A
C149        C154   1.408       .  A
C149        H156   1.084       .  S
C150        C151   1.405       .  A
C151        C152   1.397       .  A
C151        N158   1.429       .  S
C152        C153   1.405       .  A
C152        H157   1.085       .  S
C153        C154   1.410       .  A
C154        N155   1.430       .  S
N155        O159   1.262       .  A
N155        O160   1.262       .  A
N158        O162   1.262       .  A
N158        O161   1.262       .  A
C163        C164   1.403       .  A
C163        C168   1.398       .  A
C163        H170   1.085       .  S
C164        C165   1.410       .  A
C165        C166   1.408       .  A
C165        N172   1.429       .  S
C166        C167   1.406       .  A
C166        H171   1.084       .  S
C167        C168   1.412       .  A
C168        N169   1.430       .  S
N169        O173   1.262       .  A
N169        O174   1.262       .  A
N172        O176   1.262       .  A
N172        O175   1.262       .  A
C177        C178   1.408       .  A
C177        C182   1.406       .  A
C177        H184   1.084       .  S
C178        C179   1.409       .  A
C179        C180   1.396       .  A
C179        N186   1.430       .  S
C180        C181   1.403       .  A
C180        H185   1.085       .  S
C181        C182   1.406       .  A
C182        N183   1.429       .  S
N183        O187   1.262       .  A
N183        O188   1.261       .  A
N186        O190   1.262       .  A
N186        O877   1.262   1_455  A
O189        N874   1.262       .  A
C191        C192   1.404       .  A
C191        C196   1.399       .  A
C191        H198   1.085       .  S
C192        C193   1.411       .  A
C193        C194   1.409       .  A
C193        N200   1.429       .  S
C194        C195   1.406       .  A
C194        H199   1.085       .  S
C195        C196   1.406       .  A
C196        N197   1.429       .  S
N197        O201   1.261       .  A
N197        O202   1.262   1_554  A
N200        O204   1.262       .  A
N200        O203   1.262       .  A
C205        C206   1.410       .  A
C205        C210   1.410       .  A
C205        H212   1.084       .  S
C206        C207   1.410       .  A
C207        C208   1.395       .  A
C207        N214   1.430       .  S
C208        C209   1.403       .  A
C208        H213   1.085       .  S
C209        C210   1.408       .  A
C210        N211   1.428       .  S
N211        O215   1.262       .  A
N211        O216   1.262       .  A
N214        O218   1.262       .  A
N214        O561   1.262       .  A
O217        N558   1.262       .  A
C219        C220   1.407       .  A
C219        C224   1.404       .  A
C219        H226   1.083       .  S
C220        C221   1.416   1_554  A
C221        C222   1.408       .  A
C221        N228   1.429       .  S
C222        C223   1.409   1_556  A
C222        H227   1.084       .  S
C223        C224   1.415       .  A
C224        N225   1.428       .  S
N225        O229   1.262       .  A
N225        O230   1.262       .  A
N228        O232   1.262   1_556  A
N228        O231   1.262       .  A
C233        C238   1.407       .  A
C233        C922   1.409   1_455  A
C233        H240   1.083       .  S
C234        C235   1.419   1_554  A
C234        C921   1.409       .  A
C235        C236   1.406       .  A
C235        N242   1.428       .  S
C236        C925   1.403   1_556  A
C236        H241   1.084       .  S
C237        C238   1.412   1_655  A
C237        C924   1.403   1_554  A
C238        N239   1.430       .  S
N239        O243   1.262   1_554  A
N239        O244   1.262       .  A
N242        O246   1.262   1_556  A
N242        O245   1.262       .  A
C247        C252   1.405       .  A
C247        C592   1.409       .  A
C247        H254   1.083       .  S
C248        C249   1.419       .  A
C248        C591   1.410   1_545  A
C249        C250   1.406       .  A
C249        N256   1.429   1_554  S
C250        C595   1.403       .  A
C250        H255   1.084   1_554  S
C251        C252   1.410       .  A
C251        C594   1.403   1_554  A
C252        N253   1.429       .  S
N253        O257   1.262   1_554  A
N253        O258   1.262       .  A
N256        O260   1.262   1_556  A
N256        O259   1.262       .  A
C261        C262   1.407       .  A
C261        C266   1.411       .  A
C261        H268   1.084       .  S
C262        C263   1.405       .  A
C263        C264   1.393       .  A
C263        N270   1.430       .  S
C264        C265   1.408       .  A
C264        H269   1.084       .  S
C265        C266   1.412       .  A
C266        N267   1.429       .  S
N267        O271   1.262       .  A
N267        O272   1.262       .  A
N270        O274   1.262       .  A
N270        O273   1.262       .  A
C275        C276   1.398       .  A
C275        C280   1.395       .  A
C275        H282   1.085       .  S
C276        C277   1.413       .  A
C277        C278   1.407       .  A
C277        N284   1.428       .  S
C278        C279   1.405       .  A
C278        H283   1.084       .  S
C279        C280   1.415       .  A
C280        N281   1.429       .  S
N281        O285   1.262       .  A
N281        O286   1.261       .  A
N284        O288   1.262       .  A
N284        O287   1.262   1_556  A
C289        C290   1.407       .  A
C289        C294   1.395       .  A
C289        H296   1.084       .  S
C290        C291   1.412       .  A
C291        C292   1.409       .  A
C291        N298   1.430       .  S
C292        C293   1.408       .  A
C292        H297   1.084       .  S
C293        C294   1.406       .  A
C294        N295   1.430       .  S
N295        O299   1.262       .  A
N295        O300   1.262       .  A
N298        O302   1.262       .  A
N298        O301   1.262       .  A
C303        C304   1.402       .  A
C303        C308   1.399       .  A
C303        H310   1.085       .  S
C304        C305   1.408       .  A
C305        C306   1.405       .  A
C305        N312   1.429       .  S
C306        C307   1.405       .  A
C306        H311   1.084       .  S
C307        C308   1.407       .  A
C308        N309   1.431       .  S
N309        O313   1.261       .  A
N309        O314   1.262       .  A
N312        O316   1.262       .  A
N312        O315   1.262       .  A
C317        C318   1.405       .  A
C317        C322   1.410       .  A
C317        H324   1.082       .  S
C318        C319   1.414       .  A
C319        C320   1.397       .  A
C319        N326   1.431       .  S
C320        C321   1.399       .  A
C320        H325   1.085       .  S
C321        C322   1.411       .  A
C322        N323   1.428       .  S
N323        O327   1.262       .  A
N323        O328   1.262       .  A
N326        O330   1.262       .  A
N326        O329   1.262       .  A
C331        C332   1.412       .  A
C331        C336   1.410       .  A
C331        H338   1.084       .  S
C332        C333   1.412       .  A
C333        C334   1.395       .  A
C333        N340   1.432       .  S
C334        C335   1.402       .  A
C334        H339   1.084       .  S
C335        C336   1.407       .  A
C336        N337   1.428       .  S
N337        O341   1.261       .  A
N337        O342   1.262       .  A
N340        O344   1.262       .  A
N340        O343   1.262       .  A
Fe345       O361   2.087       .  S
Fe345       O351   2.053       .  S
Fe345       O358   2.050       .  S
Fe345       O350   2.093       .  S
Fe345       O356   1.936       .  S
Fe346       O349   2.092       .  S
Fe346       O353   2.059       .  S
Fe346       O357   2.093       .  S
Fe346       O362   2.056       .  S
Fe346       O356   1.933       .  S
Fe347       O365   2.051       .  S
Fe347       O352   2.094       .  S
Fe347       O359   2.101       .  S
Fe347       O348   2.062       .  S
Fe347       O356   1.935       .  S
O348        C355   1.269       .  A
O349        C363   1.273       .  A
O350        C355   1.276       .  A
O351        C354   1.266       .  A
O352        C364   1.278       .  A
O353        C366   1.272       .  A
C354        O359   1.275       .  A
C354        C634   1.492       .  S
C355        C609   1.479       .  S
O357        C360   1.272       .  A
O358        C360   1.264       .  A
C360        C662   1.485       .  S
O361        C366   1.277       .  A
O362        C364   1.270       .  A
C363        O365   1.265       .  A
C363        C623   1.483       .  S
C364        C648   1.472       .  S
C366        C679   1.474       .  S
C367        C592   1.501       .  S
C367        N368   1.362       .  A
N368       C1057   1.363       .  A
C369        C564   1.502       .  S
C369       N1056   1.363       .  A
C369        N370   1.363       .  A
N370        C715   1.364   1_455  A
C371        C578   1.496       .  S
C371        N714   1.365       .  A
C371        N372   1.363       .  A
C373        C620   1.479       .  S
C373        N378   1.362       .  A
N374        C375   1.358   1_545  A
C375        C550   1.476       .  S
C375        N376   1.364       .  A
N376        C377   1.360   1_565  A
C377        C595   1.491       .  S
C379        C676   1.488       .  S
C379        N380   1.362       .  A
C379        N384   1.359       .  A
N380        C381   1.360       .  A
C381        C567   1.504   1_556  S
C381        N382   1.362   1_556  A
N382        C383   1.365       .  A
C383        C539   1.477       .  S
C383        N384   1.359   1_554  A
C385        C522   1.479       .  S
C385        N386   1.363       .  A
C385        N390   1.359   1_455  A
N386        C387   1.359   1_455  A
C387        C581   1.498       .  S
C387       N1076   1.359   1_554  A
N388       C1075   1.359   1_556  A
N388        C389   1.363       .  A
C389        C637   1.483       .  S
C389       N1078   1.358   1_556  A
N390       C1077   1.358   1_554  A
Fe391       O407   2.112       .  S
Fe391       O397   2.012       .  S
Fe391       O404   2.014       .  S
Fe391       O396   2.109       .  S
Fe391       O402   1.977       .  S
Fe392       O395   2.112       .  S
Fe392       O399   2.014       .  S
Fe392       O403   2.105       .  S
Fe392       O408   2.025       .  S
Fe392       O402   1.974       .  S
Fe393       O411   2.012       .  S
Fe393       O398   2.114       .  S
Fe393       O405   2.111       .  S
Fe393       O394   2.015       .  S
Fe393       O402   1.981       .  S
O394        C401   1.260       .  A
O395        C409   1.275       .  A
O396        C401   1.275       .  A
O397        C400   1.260       .  A
O398        C410   1.279       .  A
O399        C412   1.264       .  A
C400        O405   1.275       .  A
C400        C497   1.480       .  S
C401        C553   1.472       .  S
O403        C406   1.273       .  A
O404        C406   1.259       .  A
C406        C525   1.475       .  S
O407        C412   1.277       .  A
O408        C410   1.263       .  A
C409        O411   1.257       .  A
C409        C508   1.476       .  S
C410        C536   1.473       .  S
C412        C483   1.484       .  S
C413       C1126   1.500       .  S
C413       N1106   1.362       .  A
N414        C415   1.361       .  A
C415        C466   1.496       .  S
C415        N416   1.360       .  A
N416       C1105   1.359       .  A
C417        C452   1.505       .  S
C417       N1104   1.359       .  A
N418       C1101   1.362   1_455  A
C419        C494   1.480       .  S
C419        N420   1.362       .  A
C419        N424   1.356   1_565  A
N420        C421   1.361   1_565  A
C421        C455   1.499       .  S
N422        C423   1.363       .  A
C423        C651   1.478       .  S
C425        C606   1.471       .  S
C425        N426   1.366       .  A
C425       N1118   1.359       .  A
N426       C1115   1.361       .  A
C427        C441   1.497       .  S
C427       N1114   1.361       .  A
C427        N428   1.357   1_655  A
N428        C429   1.359       .  A
C429        C480   1.483       .  S
C429        N430   1.357   1_455  A
N430       C1113   1.359       .  A
C431        C665   1.476       .  S
C431        N432   1.359       .  A
C431        N436   1.359       .  A
N432        C433   1.361       .  A
C433        C511   1.483       .  S
C433        N434   1.364       .  A
N434        C435   1.359       .  A
C435        C469   1.488       .  S
C435        N436   1.356       .  A
C437       C1126   1.411       .  A
C437        C442   1.411       .  A
C437        H444   1.085       .  S
C438       C1101   1.500       .  S
C438       C1125   1.411       .  A
C438        C439   1.415   1_655  A
C439        C440   1.400       .  A
C439        N446   1.429       .  S
C440        C441   1.405   1_455  A
C440        H445   1.085       .  S
C441       C1130   1.413       .  A
C442       C1129   1.413       .  A
C442        N443   1.428       .  S
N443        O447   1.262       .  A
N443        O448   1.262       .  A
N446        O450   1.262       .  A
N446        O449   1.262       .  A
C451        C452   1.408   1_545  A
C451        C456   1.408       .  A
C451        H458   1.083       .  S
C453        C454   1.407       .  A
C453        N460   1.429       .  S
C454        H459   1.083       .  S
C455        C456   1.415       .  A
C456        N457   1.428       .  S
N457        O461   1.262       .  A
N457        O462   1.262       .  A
N460        O463   1.262       .  A
C465        C466   1.407       .  A
C465        C470   1.401       .  A
C465        H472   1.083       .  S
C466        C467   1.417       .  A
C467        C468   1.407       .  A
C467        N474   1.429       .  S
C468        C469   1.405       .  A
C468        H473   1.084       .  S
C469        C470   1.411       .  A
C470        N471   1.430       .  S
N471        O475   1.262       .  A
N471        O476   1.262       .  A
N474        O478   1.262       .  A
N474        O477   1.262       .  A
C479        C480   1.411       .  A
C479        C484   1.412       .  A
C479        H486   1.084       .  S
C480        C481   1.410       .  A
C481        C482   1.388       .  A
C481        N488   1.432       .  S
C482        C483   1.403       .  A
C482        H487   1.083       .  S
C483        C484   1.411       .  A
C484        N485   1.429       .  S
N485        O489   1.262       .  A
N485        O490   1.262       .  A
N488        O492   1.262       .  A
N488        O491   1.262       .  A
C493        C494   1.410       .  A
C493        C498   1.409       .  A
C493        H500   1.084       .  S
C494        C495   1.407       .  A
C495        C496   1.394       .  A
C495        N502   1.430       .  S
C496        C497   1.406       .  A
C496        H501   1.085       .  S
C497        C498   1.408       .  A
C498        N499   1.428       .  S
N499        O503   1.262       .  A
N499        O504   1.262       .  A
N502        O506   1.262       .  A
N502        O505   1.262       .  A
C507        C508   1.404       .  A
C507        C512   1.397       .  A
C507        H514   1.085       .  S
C508        C509   1.407       .  A
C509        C510   1.407       .  A
C509        N516   1.426       .  S
C510        C511   1.407       .  A
C510        H515   1.084       .  S
C511        C512   1.409       .  A
C512        N513   1.430       .  S
N513        O517   1.262       .  A
N513        O518   1.262       .  A
N516        O520   1.262       .  A
N516        O519   1.261       .  A
C521        C522   1.409       .  A
C521        C526   1.407       .  A
C521        H528   1.084       .  S
C522        C523   1.407       .  A
C523        C524   1.394       .  A
C523        N530   1.430   1_455  S
C524        C525   1.405       .  A
C524        H529   1.085       .  S
C525        C526   1.405       .  A
C526        N527   1.427       .  S
N527        O531   1.262       .  A
N527        O532   1.261       .  A
N530        O534   1.262   1_655  A
N530       O1221   1.262       .  A
O533       N1218   1.262       .  A
C535        C536   1.403       .  A
C535        C540   1.400       .  A
C535        H542   1.083       .  S
C536        C537   1.410       .  A
C537        C538   1.406       .  A
C537        N544   1.429       .  S
C538        C539   1.404       .  A
C538        H543   1.084       .  S
C539        C540   1.406       .  A
C540        N541   1.429       .  S
N541        O545   1.261       .  A
N541        O546   1.262   1_554  A
N544        O548   1.262       .  A
N544        O547   1.262       .  A
C549        C550   1.407       .  A
C549        C554   1.407       .  A
C549        H556   1.084       .  S
C550        C551   1.406       .  A
C551        C552   1.396       .  A
C551        N558   1.429   1_565  S
C552        C553   1.405       .  A
C552        H557   1.085       .  S
C553        C554   1.408       .  A
C554        N555   1.429       .  S
N555        O559   1.262       .  A
N555        O560   1.262       .  A
N558        O562   1.262       .  A
C563        C564   1.408       .  A
C563        C568   1.407       .  A
C563        H570   1.084       .  S
C564        C565   1.415   1_554  A
C565        C566   1.406       .  A
C565        N572   1.429       .  S
C566        C567   1.409   1_556  A
C566        H571   1.084       .  S
C567        C568   1.415       .  A
C568        N569   1.428       .  S
N569        O573   1.262       .  A
N569        O574   1.262       .  A
N572        O576   1.262       .  A
N572        O575   1.262       .  A
C577       C1266   1.406   1_455  A
C577        C582   1.408       .  A
C577        H584   1.084       .  S
C578       C1265   1.406       .  A
C578        C579   1.414   1_554  A
C579        C580   1.406       .  A
C579        N586   1.429       .  S
C580       C1269   1.407   1_556  A
C580        H585   1.084       .  S
C581       C1268   1.407   1_554  A
C581        C582   1.418   1_655  A
C582        N583   1.431       .  S
N583        O587   1.262       .  A
N583        O588   1.262       .  A
N586        O590   1.262       .  A
N586        O589   1.262       .  A
C591        C596   1.407       .  A
C591        H598   1.083       .  S
C592        C593   1.419   1_554  A
C593        C594   1.406       .  A
C593        N600   1.429       .  S
C594        H599   1.084       .  S
C595        C596   1.411   1_545  A
C596        N597   1.429       .  S
N597        O601   1.262       .  A
N597        O602   1.262       .  A
N600        O604   1.262   1_556  A
N600        O603   1.262       .  A
C605        C606   1.404       .  A
C605        C610   1.408       .  A
C605        H612   1.084       .  S
C606        C607   1.404       .  A
C607        C608   1.396       .  A
C607        N614   1.430       .  S
C608        C609   1.406       .  A
C608        H613   1.084       .  S
C609        C610   1.412       .  A
C610        N611   1.429       .  S
N611        O615   1.262       .  A
N611        O616   1.262       .  A
N614        O618   1.262       .  A
N614        O617   1.262       .  A
C619        C620   1.399       .  A
C619        C624   1.395       .  A
C619        H626   1.085       .  S
C620        C621   1.412       .  A
C621        C622   1.408       .  A
C621        N628   1.428       .  S
C622        C623   1.406       .  A
C622        H627   1.084       .  S
C623        C624   1.414       .  A
C624        N625   1.429       .  S
N625        O629   1.262       .  A
N625        O630   1.261       .  A
N628        O632   1.262       .  A
N628        O631   1.262       .  A
C633        C634   1.409       .  A
C633        C638   1.393       .  A
C633        H640   1.084       .  S
C634        C635   1.413       .  A
C635        C636   1.411       .  A
C635        N642   1.429       .  S
C636        C637   1.409       .  A
C636        H641   1.084       .  S
C637        C638   1.407       .  A
C638        N639   1.431       .  S
N639        O643   1.262       .  A
N639        O644   1.262       .  A
N642        O646   1.262       .  A
N642        O645   1.262       .  A
C647        C648   1.402       .  A
C647        C652   1.399       .  A
C647        H654   1.088       .  S
C648        C649   1.407       .  A
C649        C650   1.406       .  A
C649        N656   1.428       .  S
C650        C651   1.406       .  A
C650        H655   1.086       .  S
C651        C652   1.409       .  A
C652        N653   1.433       .  S
N653        O657   1.262       .  A
N653        O658   1.262       .  A
N656        O660   1.262       .  A
N656        O659   1.261       .  A
C661        C662   1.405       .  A
C661        C666   1.407       .  A
C661        H668   1.087       .  S
C662        C663   1.416       .  A
C663        C664   1.396       .  A
C663        N670   1.432       .  S
C664        C665   1.398       .  A
C664        H669   1.086       .  S
C665        C666   1.411       .  A
C666        N667   1.429       .  S
N667        O671   1.262       .  A
N667        O672   1.262       .  A
N670        O674   1.262       .  A
N670        O673   1.262       .  A
C675        C676   1.413       .  A
C675        C680   1.409       .  A
C675        H682   1.084       .  S
C676        C677   1.413       .  A
C677        C678   1.394       .  A
C677        N684   1.432       .  S
C678        C679   1.401       .  A
C678        H683   1.085       .  S
C679        C680   1.406       .  A
C680        N681   1.428       .  S
N681        O685   1.262       .  A
N681        O686   1.262       .  A
N684        O688   1.262       .  A
N684        O687   1.262       .  A
Fe689       O705   2.091       .  S
Fe689       O695   2.058       .  S
Fe689       O702   2.047       .  S
Fe689       O694   2.103       .  S
Fe689       O700   1.940       .  S
Fe690       O693   2.094       .  S
Fe690       O697   2.058       .  S
Fe690       O701   2.099       .  S
Fe690       O706   2.060       .  S
Fe690       O700   1.939       .  S
Fe691       O709   2.044       .  S
Fe691       O696   2.087       .  S
Fe691       O703   2.092       .  S
Fe691       O692   2.050       .  S
Fe691       O700   1.939       .  S
O692        C699   1.266       .  A
O693        C707   1.272       .  A
O694        C699   1.276       .  A
O695        C698   1.268       .  A
O696        C708   1.277       .  A
O697        C710   1.272       .  A
C698        O703   1.276       .  A
C698        C978   1.483       .  S
C699        C953   1.487       .  S
O701        C704   1.273       .  A
O702        C704   1.264       .  A
C704       C1006   1.486       .  S
O705        C710   1.278       .  A
O706        C708   1.271       .  A
C707        O709   1.263       .  A
C707        C967   1.483       .  S
C708        C992   1.469       .  S
C710       C1023   1.477       .  S
C711        C936   1.502       .  S
C711        N712   1.361   1_655  A
C711       N1060   1.363   1_545  A
C713        C908   1.503       .  S
C713        N714   1.364   1_545  A
C715        C922   1.503       .  S
C715        N716   1.362       .  A
N716       C1055   1.363       .  A
C717        C964   1.478       .  S
C717       N1062   1.357   1_556  A
C717        N722   1.362       .  A
N718       C1061   1.361   1_554  A
N718        C719   1.362       .  A
C719        C894   1.485       .  S
C719        N720   1.363       .  A
N720        C721   1.358       .  A
C721        C939   1.488       .  S
C721       N1066   1.357   1_554  A
N722       C1065   1.359   1_556  A
C723       C1020   1.488       .  S
C723        N724   1.363       .  A
C723        N728   1.361       .  A
N724        C725   1.360   1_556  A
C725        C911   1.502       .  S
C725        N726   1.361       .  A
N726        C727   1.363       .  A
C727        C883   1.479       .  S
C727        N728   1.360   1_554  A
C729        C866   1.480       .  S
C729        N730   1.362       .  A
C729        N734   1.358       .  A
N730        C731   1.359       .  A
C731        C925   1.491       .  S
N732        C733   1.364       .  A
C733        C981   1.479       .  S
Fe735       O751   2.121       .  S
Fe735       O741   2.015       .  S
Fe735       O748   2.017       .  S
Fe735       O740   2.119       .  S
Fe735       O746   1.955       .  S
Fe736       O739   2.116       .  S
Fe736       O743   2.020       .  S
Fe736       O747   2.113       .  S
Fe736       O752   2.028       .  S
Fe736       O746   1.953       .  S
Fe737       O755   2.029       .  S
Fe737       O742   2.128       .  S
Fe737       O749   2.123       .  S
Fe737       O738   2.022       .  S
Fe737       O746   1.951       .  S
O738        C745   1.263       .  A
O739        C753   1.275       .  A
O740        C745   1.278       .  A
O741        C744   1.261       .  A
O742        C754   1.282       .  A
O743        C756   1.265       .  A
C744        O749   1.279       .  A
C744        C841   1.476       .  S
C745        C897   1.478       .  S
O747        C750   1.275       .  A
O748        C750   1.260       .  A
C750        C869   1.472       .  S
O751        C756   1.279       .  A
O752        C754   1.266       .  A
C753        O755   1.261       .  A
C753        C852   1.479       .  S
C754        C880   1.480       .  S
C756        C827   1.475       .  S
C757       N1102   1.363   1_445  A
N758       C1101   1.363       .  A
N758        C759   1.363       .  A
C759        C810   1.497       .  S
C759        N760   1.363       .  A
C761        C796   1.501       .  S
C761       N1106   1.361       .  A
N762       C1105   1.365   1_545  A
C763        C838   1.477       .  S
C763        N764   1.363       .  A
C763        N768   1.356       .  A
N764        C765   1.363       .  A
C765        C799   1.506       .  S
C765       N1110   1.362       .  A
N766       C1109   1.362       .  A
N766        C767   1.364       .  A
C767        C995   1.476       .  S
C767       N1112   1.358       .  A
N768       C1111   1.357       .  A
C769        C950   1.477       .  S
C769        N770   1.364       .  A
C771        C785   1.500       .  S
C771        N772   1.360       .  A
N772        C773   1.361       .  A
C773        C824   1.474       .  S
C773        N774   1.357       .  A
C775       C1009   1.480       .  S
C775        N776   1.362       .  A
C775        N780   1.361       .  A
N776        C777   1.364       .  A
C777        C855   1.486       .  S
C777        N778   1.362       .  A
N778        C779   1.357       .  A
C779        C813   1.487       .  S
C779        N780   1.357       .  A
C781        C786   1.407       .  A
C781        H788   1.084       .  S
C782        C783   1.414       .  A
C783        C784   1.406       .  A
C783        N790   1.429       .  S
C784        C785   1.408       .  A
C784        H789   1.083       .  S
C786        N787   1.429       .  S
N787        O791   1.262       .  A
N787        O792   1.262       .  A
N790        O794   1.262       .  A
N790        O793   1.262       .  A
C795        C796   1.406       .  A
C795        C800   1.407       .  A
C795        H802   1.084       .  S
C796       C1141   1.416       .  A
C797       C1140   1.420       .  A
C797        C798   1.404       .  A
C797        N804   1.429       .  S
C798       C1143   1.405   1_565  A
C798        H803   1.084       .  S
C799       C1142   1.410       .  A
C799        C800   1.419       .  A
C800        N801   1.429       .  S
N801        O805   1.262       .  A
N801        O806   1.262       .  A
N804       O1152   1.262       .  A
N804        O807   1.262       .  A
O808       N1148   1.262       .  A
C809        C810   1.408       .  A
C809        C814   1.404       .  A
C809        H816   1.084       .  S
C810        C811   1.417       .  A
C811        C812   1.405       .  A
C811        N818   1.429       .  S
C812        C813   1.404       .  A
C812        H817   1.084       .  S
C813        C814   1.411       .  A
C814        N815   1.430       .  S
N815        O819   1.262       .  A
N815        O820   1.262       .  A
N818        O822   1.262       .  A
N818        O821   1.262       .  A
C823        C824   1.406       .  A
C823        C828   1.408       .  A
C823        H830   1.093       .  S
C824        C825   1.406       .  A
C825        C826   1.390       .  A
C825        N832   1.429       .  S
C826        C827   1.400       .  A
C826        H831   1.103       .  S
C827        C828   1.411       .  A
C828        N829   1.428       .  S
N829        O833   1.262       .  A
N829        O834   1.262       .  A
N832        O836   1.262       .  A
N832        O835   1.262       .  A
C837        C838   1.407       .  A
C837        C842   1.408       .  A
C837        H844   1.084       .  S
C838        C839   1.405       .  A
C839        C840   1.397       .  A
C839        N846   1.429       .  S
C840        C841   1.405       .  A
C840        H845   1.085       .  S
C841        C842   1.410       .  A
C842        N843   1.430       .  S
N843        O847   1.262       .  A
N843        O848   1.262       .  A
N846        O850   1.262       .  A
N846        O849   1.262       .  A
C851        C852   1.403       .  A
C851        C856   1.398       .  A
C851        H858   1.085       .  S
C852        C853   1.410       .  A
C853        C854   1.408       .  A
C853        N860   1.429       .  S
C854        C855   1.406       .  A
C854        H859   1.084       .  S
C855        C856   1.412       .  A
C856        N857   1.430       .  S
N857        O861   1.262       .  A
N857        O862   1.262       .  A
N860        O864   1.262       .  A
N860        O863   1.262       .  A
C865        C866   1.408       .  A
C865        C870   1.406       .  A
C865        H872   1.084       .  S
C866        C867   1.409       .  A
C867        C868   1.396       .  A
C867        N874   1.430       .  S
C868        C869   1.403       .  A
C868        H873   1.085       .  S
C869        C870   1.406       .  A
C870        N871   1.429       .  S
N871        O875   1.262       .  A
N871        O876   1.261       .  A
N874        O878   1.262       .  A
C879        C880   1.404       .  A
C879        C884   1.399       .  A
C879        H886   1.085       .  S
C880        C881   1.411       .  A
C881        C882   1.409       .  A
C881        N888   1.429       .  S
C882        C883   1.406       .  A
C882        H887   1.085       .  S
C883        C884   1.406       .  A
C884        N885   1.429       .  S
N885        O889   1.261       .  A
N885        O890   1.262   1_554  A
N888        O892   1.262       .  A
N888        O891   1.262       .  A
C893        C894   1.410       .  A
C893        C898   1.410       .  A
C893        H900   1.084       .  S
C894        C895   1.410       .  A
C895        C896   1.395       .  A
C895        N902   1.430       .  S
C896        C897   1.403       .  A
C896        H901   1.085       .  S
C897        C898   1.408       .  A
C898        N899   1.428       .  S
N899        O903   1.262       .  A
N899        O904   1.262       .  A
N902        O906   1.262       .  A
N902       O1249   1.262       .  A
O905       N1246   1.262       .  A
C907        C908   1.407       .  A
C907        C912   1.404       .  A
C907        H914   1.083       .  S
C908        C909   1.416   1_554  A
C909        C910   1.408       .  A
C909        N916   1.429       .  S
C910        C911   1.409   1_556  A
C910        H915   1.084       .  S
C911        C912   1.415       .  A
C912        N913   1.428       .  S
N913        O917   1.262       .  A
N913        O918   1.262       .  A
N916        O920   1.262   1_556  A
N916        O919   1.262       .  A
C921        C926   1.407       .  A
C921        H928   1.083       .  S
C922        C923   1.419   1_554  A
C923        C924   1.406       .  A
C923        N930   1.428       .  S
C924        H929   1.084       .  S
C925        C926   1.412       .  A
C926        N927   1.430       .  S
N927        O931   1.262   1_554  A
N927        O932   1.262       .  A
N930        O934   1.262   1_556  A
N930        O933   1.262       .  A
C935       C1280   1.409       .  A
C935        C940   1.405       .  A
C935        H942   1.083       .  S
C936       C1279   1.410   1_545  A
C936        C937   1.419       .  A
C937        C938   1.406       .  A
C937        N944   1.429   1_554  S
C938       C1283   1.403       .  A
C938        H943   1.084   1_554  S
C939       C1282   1.403   1_554  A
C939        C940   1.410       .  A
C940        N941   1.429       .  S
N941        O945   1.262   1_554  A
N941        O946   1.262       .  A
N944        O948   1.262   1_556  A
N944        O947   1.262       .  A
C949        C950   1.407       .  A
C949        C954   1.411       .  A
C949        H956   1.084       .  S
C950        C951   1.405       .  A
C951        C952   1.393       .  A
C951        N958   1.430       .  S
C952        C953   1.408       .  A
C952        H957   1.084       .  S
C953        C954   1.412       .  A
C954        N955   1.429       .  S
N955        O959   1.262       .  A
N955        O960   1.262       .  A
N958        O962   1.262       .  A
N958        O961   1.262   1_655  A
C963        C964   1.398       .  A
C963        C968   1.395       .  A
C963        H970   1.085       .  S
C964        C965   1.413       .  A
C965        C966   1.407       .  A
C965        N972   1.428       .  S
C966        C967   1.405       .  A
C966        H971   1.084       .  S
C967        C968   1.415       .  A
C968        N969   1.429       .  S
N969        O973   1.262       .  A
N969        O974   1.261       .  A
N972        O976   1.262       .  A
N972        O975   1.262   1_556  A
C977        C978   1.407       .  A
C977        C982   1.395       .  A
C977        H984   1.084       .  S
C978        C979   1.412       .  A
C979        C980   1.409       .  A
C979        N986   1.430       .  S
C980        C981   1.408       .  A
C980        H985   1.084       .  S
C981        C982   1.406       .  A
C982        N983   1.430       .  S
N983        O987   1.262   1_655  A
N983        O988   1.262       .  A
N986        O990   1.262       .  A
N986        O989   1.262       .  A
C991        C992   1.402       .  A
C991        C996   1.399       .  A
C991        H998   1.085       .  S
C992        C993   1.408       .  A
C993        C994   1.405       .  A
C993       N1000   1.429       .  S
C994        C995   1.405       .  A
C994        H999   1.084       .  S
C995        C996   1.407       .  A
C996        N997   1.431       .  S
N997       O1001   1.261       .  A
N997       O1002   1.262       .  A
N1000      O1004   1.262       .  A
N1000      O1003   1.262       .  A
C1005      C1006   1.405       .  A
C1005      C1010   1.410       .  A
C1005      H1012   1.082       .  S
C1006      C1007   1.414       .  A
C1007      C1008   1.397       .  A
C1007      N1014   1.431       .  S
C1008      C1009   1.399       .  A
C1008      H1013   1.085       .  S
C1009      C1010   1.411       .  A
C1010      N1011   1.428       .  S
N1011      O1015   1.262       .  A
N1011      O1016   1.262       .  A
N1014      O1018   1.262       .  A
N1014      O1017   1.262       .  A
C1019      C1020   1.412       .  A
C1019      C1024   1.410       .  A
C1019      H1026   1.084       .  S
C1020      C1021   1.412       .  A
C1021      C1022   1.395       .  A
C1021      N1028   1.432       .  S
C1022      C1023   1.402       .  A
C1022      H1027   1.084       .  S
C1023      C1024   1.407       .  A
C1024      N1025   1.428       .  S
N1025      O1029   1.261       .  A
N1025      O1030   1.262       .  A
N1028      O1032   1.262       .  A
N1028      O1031   1.262       .  A
Fe1033     O1049   2.087       .  S
Fe1033     O1039   2.053       .  S
Fe1033     O1046   2.050       .  S
Fe1033     O1038   2.093       .  S
Fe1033     O1044   1.936       .  S
Fe1034     O1037   2.092       .  S
Fe1034     O1041   2.059       .  S
Fe1034     O1045   2.093       .  S
Fe1034     O1050   2.056       .  S
Fe1034     O1044   1.933       .  S
Fe1035     O1053   2.051       .  S
Fe1035     O1040   2.094       .  S
Fe1035     O1047   2.101       .  S
Fe1035     O1036   2.062       .  S
Fe1035     O1044   1.935       .  S
O1036      C1043   1.269       .  A
O1037      C1051   1.273       .  A
O1038      C1043   1.276       .  A
O1039      C1042   1.266       .  A
O1040      C1052   1.278       .  A
O1041      C1054   1.272       .  A
C1042      O1047   1.275       .  A
C1042      C1322   1.492       .  S
C1043      C1297   1.479       .  S
O1045      C1048   1.272       .  A
O1046      C1048   1.264       .  A
C1048      C1350   1.485       .  S
O1049      C1054   1.277       .  A
O1050      C1052   1.270       .  A
C1051      O1053   1.265       .  A
C1051      C1311   1.483       .  S
C1052      C1336   1.472       .  S
C1054      C1367   1.474       .  S
C1055      C1280   1.501       .  S
C1055      N1056   1.362   1_655  A
C1057      C1252   1.502       .  S
C1057      N1058   1.363       .  A
C1059      C1266   1.496       .  S
C1059      N1060   1.363       .  A
C1061      C1308   1.479       .  S
C1061      N1066   1.362       .  A
N1062      C1063   1.358   1_545  A
C1063      C1238   1.476       .  S
C1063      N1064   1.364       .  A
N1064      C1065   1.360   1_565  A
C1065      C1283   1.491       .  S
C1067      C1364   1.488       .  S
C1067      N1068   1.362       .  A
C1067      N1072   1.359       .  A
N1068      C1069   1.359       .  A
C1069      C1255   1.504   1_556  S
C1069      N1070   1.362   1_556  A
N1070      C1071   1.365       .  A
C1071      C1227   1.477       .  S
C1071      N1072   1.359   1_554  A
C1073      C1210   1.479       .  S
C1073      N1074   1.363       .  A
C1073      N1078   1.359       .  A
N1074      C1075   1.359       .  A
C1075      C1269   1.498       .  S
N1076      C1077   1.363       .  A
C1077      C1325   1.483       .  S
Fe1079     O1095   2.112       .  S
Fe1079     O1085   2.012       .  S
Fe1079     O1092   2.014       .  S
Fe1079     O1084   2.109       .  S
Fe1079     O1090   1.977       .  S
Fe1080     O1083   2.112       .  S
Fe1080     O1087   2.014       .  S
Fe1080     O1091   2.105       .  S
Fe1080     O1096   2.025       .  S
Fe1080     O1090   1.975       .  S
Fe1081     O1099   2.012       .  S
Fe1081     O1086   2.114       .  S
Fe1081     O1093   2.111       .  S
Fe1081     O1082   2.015       .  S
Fe1081     O1090   1.981       .  S
O1082      C1089   1.260       .  A
O1083      C1097   1.275       .  A
O1084      C1089   1.275       .  A
O1085      C1088   1.260       .  A
O1086      C1098   1.279       .  A
O1087      C1100   1.264       .  A
C1088      O1093   1.275       .  A
C1088      C1185   1.480       .  S
C1089      C1241   1.472       .  S
O1091      C1094   1.273       .  A
O1092      C1094   1.259       .  A
C1094      C1213   1.475       .  S
O1095      C1100   1.277       .  A
O1096      C1098   1.263       .  A
C1097      O1099   1.257       .  A
C1097      C1196   1.476       .  S
C1098      C1224   1.473       .  S
C1100      C1171   1.484       .  S
N1102      C1103   1.361       .  A
C1103      C1154   1.496       .  S
C1103      N1104   1.360   1_655  A
C1105      C1140   1.505       .  S
C1107      C1182   1.481       .  S
C1107      N1108   1.362       .  A
C1107      N1112   1.356   1_565  A
N1108      C1109   1.361   1_565  A
C1109      C1143   1.499       .  S
N1110      C1111   1.363       .  A
C1111      C1339   1.478       .  S
C1113      C1294   1.471       .  S
C1113      N1114   1.366       .  A
C1115      C1129   1.497       .  S
C1115      N1116   1.357       .  A
N1116      C1117   1.359       .  A
C1117      C1168   1.483       .  S
C1117      N1118   1.356       .  A
C1119      C1353   1.476       .  S
C1119      N1120   1.359       .  A
C1119      N1124   1.359       .  A
N1120      C1121   1.361       .  A
C1121      C1199   1.483       .  S
C1121      N1122   1.364       .  A
N1122      C1123   1.359       .  A
C1123      C1157   1.488       .  S
C1123      N1124   1.356       .  A
C1125      C1130   1.411       .  A
C1125      H1132   1.085       .  S
C1126      C1127   1.415       .  A
C1127      C1128   1.400       .  A
C1127      N1134   1.429       .  S
C1128      C1129   1.405       .  A
C1128      H1133   1.085       .  S
C1130      N1131   1.428       .  S
N1131      O1135   1.262       .  A
N1131      O1136   1.262       .  A
N1134      O1138   1.262       .  A
N1134      O1137   1.262       .  A
C1139      C1140   1.408   1_545  A
C1139      C1144   1.408       .  A
C1139      H1146   1.083       .  S
C1141      C1142   1.407       .  A
C1141      N1148   1.429       .  S
C1142      H1147   1.083       .  S
C1143      C1144   1.415       .  A
C1144      N1145   1.428       .  S
N1145      O1149   1.262       .  A
N1145      O1150   1.262       .  A
N1148      O1151   1.262       .  A
C1153      C1154   1.407       .  A
C1153      C1158   1.401       .  A
C1153      H1160   1.083       .  S
C1154      C1155   1.417       .  A
C1155      C1156   1.407       .  A
C1155      N1162   1.429       .  S
C1156      C1157   1.405       .  A
C1156      H1161   1.084       .  S
C1157      C1158   1.411       .  A
C1158      N1159   1.430       .  S
N1159      O1163   1.262       .  A
N1159      O1164   1.262       .  A
N1162      O1166   1.262       .  A
N1162      O1165   1.262       .  A
C1167      C1168   1.411       .  A
C1167      C1172   1.412       .  A
C1167      H1174   1.084       .  S
C1168      C1169   1.410       .  A
C1169      C1170   1.388       .  A
C1169      N1176   1.432       .  S
C1170      C1171   1.403       .  A
C1170      H1175   1.083       .  S
C1171      C1172   1.411       .  A
C1172      N1173   1.429       .  S
N1173      O1177   1.262       .  A
N1173      O1178   1.262       .  A
N1176      O1180   1.262       .  A
N1176      O1179   1.262       .  A
C1181      C1182   1.410       .  A
C1181      C1186   1.409       .  A
C1181      H1188   1.084       .  S
C1182      C1183   1.407       .  A
C1183      C1184   1.394       .  A
C1183      N1190   1.430       .  S
C1184      C1185   1.406       .  A
C1184      H1189   1.085       .  S
C1185      C1186   1.408       .  A
C1186      N1187   1.428       .  S
N1187      O1191   1.262       .  A
N1187      O1192   1.262       .  A
N1190      O1194   1.262       .  A
N1190      O1193   1.262       .  A
C1195      C1196   1.404       .  A
C1195      C1200   1.397       .  A
C1195      H1202   1.085       .  S
C1196      C1197   1.407       .  A
C1197      C1198   1.407       .  A
C1197      N1204   1.426       .  S
C1198      C1199   1.407       .  A
C1198      H1203   1.084       .  S
C1199      C1200   1.409       .  A
C1200      N1201   1.430       .  S
N1201      O1205   1.262       .  A
N1201      O1206   1.262       .  A
N1204      O1208   1.262       .  A
N1204      O1207   1.261       .  A
C1209      C1210   1.409       .  A
C1209      C1214   1.407       .  A
C1209      H1216   1.084       .  S
C1210      C1211   1.407       .  A
C1211      C1212   1.394       .  A
C1211      N1218   1.430       .  S
C1212      C1213   1.405       .  A
C1212      H1217   1.085       .  S
C1213      C1214   1.405       .  A
C1214      N1215   1.427       .  S
N1215      O1219   1.262       .  A
N1215      O1220   1.261       .  A
N1218      O1222   1.262       .  A
C1223      C1224   1.403       .  A
C1223      C1228   1.400       .  A
C1223      H1230   1.083       .  S
C1224      C1225   1.410       .  A
C1225      C1226   1.406       .  A
C1225      N1232   1.429       .  S
C1226      C1227   1.404       .  A
C1226      H1231   1.084       .  S
C1227      C1228   1.406       .  A
C1228      N1229   1.429       .  S
N1229      O1233   1.261       .  A
N1229      O1234   1.262   1_554  A
N1232      O1236   1.262       .  A
N1232      O1235   1.262       .  A
C1237      C1238   1.407       .  A
C1237      C1242   1.407       .  A
C1237      H1244   1.084       .  S
C1238      C1239   1.406       .  A
C1239      C1240   1.396       .  A
C1239      N1246   1.429   1_565  S
C1240      C1241   1.405       .  A
C1240      H1245   1.085       .  S
C1241      C1242   1.408       .  A
C1242      N1243   1.429       .  S
N1243      O1247   1.262       .  A
N1243      O1248   1.262       .  A
N1246      O1250   1.262       .  A
C1251      C1252   1.408       .  A
C1251      C1256   1.407       .  A
C1251      H1258   1.084       .  S
C1252      C1253   1.415   1_554  A
C1253      C1254   1.406       .  A
C1253      N1260   1.429       .  S
C1254      C1255   1.409   1_556  A
C1254      H1259   1.084       .  S
C1255      C1256   1.415       .  A
C1256      N1257   1.428       .  S
N1257      O1261   1.262       .  A
N1257      O1262   1.262       .  A
N1260      O1264   1.262       .  A
N1260      O1263   1.262       .  A
C1265      C1270   1.408       .  A
C1265      H1272   1.084       .  S
C1266      C1267   1.414   1_554  A
C1267      C1268   1.406       .  A
C1267      N1274   1.429       .  S
C1268      H1273   1.084       .  S
C1269      C1270   1.418       .  A
C1270      N1271   1.431       .  S
N1271      O1275   1.262       .  A
N1271      O1276   1.262       .  A
N1274      O1278   1.262       .  A
N1274      O1277   1.262       .  A
C1279      C1284   1.407       .  A
C1279      H1286   1.083       .  S
C1280      C1281   1.419   1_554  A
C1281      C1282   1.406       .  A
C1281      N1288   1.428       .  S
C1282      H1287   1.084       .  S
C1283      C1284   1.411   1_545  A
C1284      N1285   1.429       .  S
N1285      O1289   1.262       .  A
N1285      O1290   1.262       .  A
N1288      O1292   1.262   1_556  A
N1288      O1291   1.262       .  A
C1293      C1294   1.404       .  A
C1293      C1298   1.408       .  A
C1293      H1300   1.084       .  S
C1294      C1295   1.404       .  A
C1295      C1296   1.396       .  A
C1295      N1302   1.430   1_655  S
C1296      C1297   1.406       .  A
C1296      H1301   1.084       .  S
C1297      C1298   1.412       .  A
C1298      N1299   1.429       .  S
N1299      O1303   1.262       .  A
N1299      O1304   1.262       .  A
N1302      O1306   1.262       .  A
N1302      O1305   1.262       .  A
C1307      C1308   1.399       .  A
C1307      C1312   1.395       .  A
C1307      H1314   1.085       .  S
C1308      C1309   1.412       .  A
C1309      C1310   1.408       .  A
C1309      N1316   1.428       .  S
C1310      C1311   1.406       .  A
C1310      H1315   1.084       .  S
C1311      C1312   1.414       .  A
C1312      N1313   1.429       .  S
N1313      O1317   1.262       .  A
N1313      O1318   1.261       .  A
N1316      O1320   1.262       .  A
N1316      O1319   1.262       .  A
C1321      C1322   1.409       .  A
C1321      C1326   1.393       .  A
C1321      H1328   1.084       .  S
C1322      C1323   1.413       .  A
C1323      C1324   1.411       .  A
C1323      N1330   1.429       .  S
C1324      C1325   1.409       .  A
C1324      H1329   1.084       .  S
C1325      C1326   1.406       .  A
C1326      N1327   1.431       .  S
N1327      O1331   1.262   1_655  A
N1327      O1332   1.262       .  A
N1330      O1334   1.262       .  A
N1330      O1333   1.262       .  A
C1335      C1336   1.402       .  A
C1335      C1340   1.399       .  A
C1335      H1342   1.088       .  S
C1336      C1337   1.407       .  A
C1337      C1338   1.406       .  A
C1337      N1344   1.428       .  S
C1338      C1339   1.406       .  A
C1338      H1343   1.086       .  S
C1339      C1340   1.409       .  A
C1340      N1341   1.433       .  S
N1341      O1345   1.262       .  A
N1341      O1346   1.262       .  A
N1344      O1348   1.262       .  A
N1344      O1347   1.261       .  A
C1349      C1350   1.405       .  A
C1349      C1354   1.407       .  A
C1349      H1356   1.088       .  S
C1350      C1351   1.416       .  A
C1351      C1352   1.396       .  A
C1351      N1358   1.432       .  S
C1352      C1353   1.398       .  A
C1352      H1357   1.086       .  S
C1353      C1354   1.411       .  A
C1354      N1355   1.429       .  S
N1355      O1359   1.262       .  A
N1355      O1360   1.262       .  A
N1358      O1362   1.262       .  A
N1358      O1361   1.262       .  A
C1363      C1364   1.413       .  A
C1363      C1368   1.409       .  A
C1363      H1370   1.084       .  S
C1364      C1365   1.413       .  A
C1365      C1366   1.394       .  A
C1365      N1372   1.432       .  S
C1366      C1367   1.401       .  A
C1366      H1371   1.085       .  S
C1367      C1368   1.406       .  A
C1368      N1369   1.428       .  S
N1369      O1373   1.262       .  A
N1369      O1374   1.262       .  A
N1372      O1376   1.262       .  A
N1372      O1375   1.262       .  A
