geometry optimzed in LAMMPS
_audit_creation_date              2020-12-01 
_audit_creation_method            'lammps2cif' 
_symmetry_space_group_name_H-M    'P1' 
_symmetry_Int_Tables_number       1 
_symmetry_cell_setting            triclinic 
loop_ 
_symmetry_equiv_pos_as_xyz 
  x,y,z 
_cell_length_a                    40.49002122 
_cell_length_b                    35.671358175623645 
_cell_length_c                    44.69069260886052 
_cell_angle_alpha                 101.34258137028777 
_cell_angle_beta                  91.94406101584677 
_cell_angle_gamma                 124.36545859670916 
loop_ 
_atom_site_label 
_atom_site_type_symbol 
_atom_site_fract_x 
_atom_site_fract_y 
_atom_site_fract_z 
_atom_site_charge 
C1          C  0.30330834  0.15831903  0.00532927     0.81600
N2          N  0.32543896  0.20440572  0.00510456    -0.76700
C3          C  0.36564427  0.22790176  0.00358429     0.84100
N4          N  0.38336098  0.20489120  0.00214884    -0.76600
C5          C  0.36170266  0.15895208  0.00225598     0.84200
N6          N  0.32163876  0.13589101  0.00432644    -0.78400
C7          C  0.30883299  0.15952088  0.25324884     0.81600
N8          N  0.33234681  0.20649663  0.25559804    -0.76700
C9          C  0.37276044  0.23021978  0.25508058     0.84100
N10         N  0.38981019  0.20650845  0.25237417    -0.76600
C11         C  0.36726076  0.15970880  0.25018498     0.84200
N12         N  0.32670162  0.13636164  0.25074010    -0.78400
C13         C  0.22798646  0.38637834  0.08739644     0.81600
N14         N  0.21016768  0.40867079  0.08478886    -0.76700
C15         C  0.16980525  0.38663225  0.08530621     0.84100
N16         N  0.14718344  0.34184198  0.08808997    -0.76600
C17         C  0.16434716  0.31878765  0.09040962     0.84200
N18         N  0.20479722  0.34138921  0.08990870    -0.78400
C19         C  0.23283488  0.39069015  0.34015933     0.81600
N20         N  0.21491703  0.41367801  0.34226620    -0.76700
C21         C  0.17511340  0.39102588  0.34522695     0.84100
N22         N  0.15359220  0.34537662  0.34621513    -0.76600
C23         C  0.17097202  0.32194471  0.34438194     0.84200
N24         N  0.21057065  0.34486704  0.34100030    -0.78400
C25         C  0.14025687  0.07376902  0.03062413     0.77800
Tb26       Tb  0.46742671  0.02202032  0.04451182     1.80700
O27         O  0.13284361  0.07795195  0.05778742    -0.50200
O28         O  0.08480665  0.49696072  0.08134667    -0.57600
C29         C  0.05980044  0.11647538  0.06711848     0.93700
O30         O  0.46695236  0.08771634  0.04527868    -0.57100
Tb31       Tb  0.06164744  0.02366708  0.04477826     1.78100
O32         O  0.40231198  0.45890428  0.04506301    -0.57600
O33         O  0.00147363  0.45301725  0.04533362    -0.76500
O34         O  0.07202978  0.09628008  0.04910735    -0.75800
O35         O  0.01609238  0.99134446  0.49408305    -0.61000
C36         C  0.46715738  0.43109184  0.02808818     0.93300
O37         O  0.98516628  0.00349541  0.08733089    -0.73000
C38         C  0.39253072  0.97695995  0.06497504     0.76700
C39         C  0.09066248  0.47296570  0.06043060     0.77700
O40         O  0.10844147  0.04691991  0.01021994    -0.58200
O41         O  0.08070057  0.47304924  0.03343245    -0.50200
O42         O  0.99876520  0.03891830  0.00116692    -0.76200
O43         O  0.05247176  0.04557940  0.09496737    -0.60200
C44         C  0.01918706  0.02426017  0.10500533     0.91500
C45         C  0.00448229  0.01276861  0.48266640     0.92700
C46         C  0.43833632  0.06841017  0.02261285     0.77000
O47         O  0.42350715  0.01687279  0.07962612    -0.49600
O48         O  0.42751241  0.52801699  0.01127715    -0.50700
O49         O  0.45463441  0.45287470  0.01838968    -0.63600
O50         O  0.02511367  0.09326257  0.07494355    -0.64700
C51         C  0.14298072  0.06770645  0.27537790     0.77800
Tb52       Tb  0.47354993  0.02494786  0.29276633     1.80700
O53         O  0.13406766  0.08975084  0.29497841    -0.50200
O54         O  0.11259346  0.52305063  0.33289996    -0.57600
C55         C  0.06984770  0.11893990  0.31942897     0.93700
O56         O  0.47118221  0.08867708  0.29179107    -0.57100
Tb57       Tb  0.06863640  0.02527693  0.29696314     1.78100
O58         O  0.40468512  0.46234816  0.29027712    -0.57600
O59         O  0.01018665  0.45504889  0.26958072    -0.76500
O60         O  0.08199817  0.09560764  0.32711006    -0.75800
O61         O  0.05299335  0.04262110  0.25277187    -0.61000
C62         C  0.47751634  0.43380719  0.28038557     0.93300
O63         O  0.00244260  0.04386453  0.34411796    -0.73000
C64         C  0.39678086  0.98042287  0.31085079     0.76700
C65         C  0.09784090  0.48018660  0.32199923     0.77700
O66         O  0.11428746  0.02464072  0.26548902    -0.58200
O67         O  0.06773033  0.45976549  0.30036398    -0.50200
O68         O  0.98573109  0.00174634  0.24408069    -0.76200
O69         O  0.03814051  0.01375162  0.34130082    -0.60200
C70         C  0.01839545  0.02681650  0.35597569     0.91500
C71         C  0.01944061  0.02234670  0.23460428     0.92700
C72         C  0.44486542  0.06933049  0.26749363     0.77000
O73         O  0.42761726  0.02016365  0.32591625    -0.49600
O74         O  0.43386452  0.52777632  0.25728506    -0.50700
O75         O  0.46776068  0.45672763  0.29850129    -0.63600
O76         O  0.03596293  0.09919508  0.30172259    -0.64700
C77         C  0.04186682  0.51407765  0.40652167     0.25000
C78         C  0.01385275  0.02185659  0.38812232    -0.23100
C79         C  0.98966666  0.03246563  0.40439842     0.19900
C80         C  0.98587479  0.02845279  0.43473779     0.24900
C81         C  0.00585850  0.01336020  0.44962999    -0.23100
C82         C  0.03942914  0.51061599  0.43708660     0.19800
F83         F  0.56074876  0.49746383  0.44999148    -0.13000
F84         F  0.56551628  0.50407575  0.39140078    -0.15400
F85         F  0.96221783  0.03909928  0.44935956    -0.15400
F86         F  0.96928158  0.04658773  0.39107800    -0.13000
C87         C  0.05560013  0.05496179  0.19156339     0.25000
C88         C  0.01969880  0.02255375  0.20141412    -0.23100
C89         C  0.48371467  0.99091693  0.17925650     0.19900
C90         C  0.48365211  0.99146659  0.14809782     0.24900
C91         C  0.01964704  0.02342462  0.13811623    -0.23100
C92         C  0.05556689  0.05535109  0.16031814     0.19800
F93         F  0.09064718  0.08786583  0.15203901    -0.13000
F94         F  0.09075808  0.08715514  0.21220440    -0.15400
F95         F  0.44826177  0.95974310  0.12761692    -0.15400
F96         F  0.44852031  0.95850955  0.18747026    -0.13000
C97         C  0.10319686  0.24511002  0.34102344     0.25000
C98         C  0.14573444  0.27058465  0.34261613    -0.22300
C99         C  0.16329190  0.24561772  0.34061559     0.19900
C100        C  0.13883133  0.19655543  0.33496536     0.24900
C101        C  0.09621627  0.17106032  0.33049900    -0.23100
C102        C  0.07884304  0.19605958  0.33473112     0.19800
F103        F  0.03803220  0.17301222  0.33274507    -0.13000
F104        F  0.08457824  0.26717905  0.34474536    -0.15400
F105        F  0.15700530  0.17402864  0.33251082    -0.15400
F106        F  0.20415233  0.26827962  0.34337858    -0.13000
C107        C  0.28510203  0.38810527  0.31330574     0.25000
C108        C  0.27508496  0.41377271  0.33416388    -0.23100
C109        C  0.30553422  0.46150053  0.34859418     0.19900
C110        C  0.34531308  0.48296951  0.34254545     0.24900
C111        C  0.35523769  0.45734386  0.32142482    -0.23100
C112        C  0.32454715  0.40966294  0.30685842     0.19800
F113        F  0.33246447  0.38368466  0.28605292    -0.13000
F114        F  0.25625484  0.34239034  0.29811483    -0.15400
F115        F  0.37475021  0.02867109  0.35561252    -0.15400
F116        F  0.29692154  0.48726791  0.36887774    -0.13000
C117        C  0.17440581  0.46245851  0.35451446     0.25000
C118        C  0.15382193  0.41354366  0.34313775    -0.23100
C119        C  0.11313770  0.38637343  0.32763744     0.19900
C120        C  0.09429414  0.40787642  0.32216164     0.24900
C121        C  0.11563350  0.45703731  0.33196113    -0.23100
C122        C  0.15555016  0.48404076  0.34892844     0.19800
F123        F  0.17717226  0.53162186  0.35882198    -0.13000
F124        F  0.21298954  0.48952249  0.37074258    -0.15400
F125        F  0.05547607  0.38050723  0.30632248    -0.15400
F126        F  0.09214098  0.33910341  0.31600387    -0.13000
C127        C  0.07097796  0.19497773  0.08490637     0.25000
C128        C  0.08681015  0.16852696  0.07821558    -0.23100
C129        C  0.12907575  0.19249073  0.08005229     0.19900
C130        C  0.15453786  0.24138374  0.08584252     0.24900
C131        C  0.13835711  0.26782824  0.08964851    -0.23100
C132        C  0.09631530  0.24400582  0.09025221     0.19800
F133        F  0.07916607  0.26769829  0.09504031    -0.13000
F134        F  0.03067880  0.17343121  0.08493018    -0.15400
F135        F  0.19490188  0.26223187  0.08643207    -0.15400
F136        F  0.14596535  0.16849504  0.07577388    -0.13000
C137        C  0.32528787  0.40496320  0.06608701     0.25000
C138        C  0.35322021  0.45416623  0.07622313    -0.23100
C139        C  0.34212777  0.98012161  0.09472824     0.19900
C140        C  0.29991385  0.45866200  0.09619288     0.24900
C141        C  0.27155075  0.40953030  0.08503150    -0.23100
C142        C  0.28494122  0.38287297  0.07045194     0.19800
F143        F  0.25854623  0.33553920  0.05886268    -0.13000
F144        F  0.33685628  0.37813054  0.05143916    -0.15400
F145        F  0.29341982  0.98538309  0.11984058    -0.15400
F146        F  0.37084359  0.02624368  0.10903934    -0.13000
C147        C  0.15865519  0.43202197  0.05566037     0.25000
C148        C  0.14975259  0.40918679  0.07958955    -0.23100
C149        C  0.12044320  0.40650101  0.09693411     0.19900
C150        C  0.10122700  0.42755198  0.09096303     0.24900
C151        C  0.10987763  0.44984440  0.06676937    -0.23100
C152        C  0.13857726  0.45170206  0.04909062     0.19800
F153        F  0.14812195  0.47388255  0.02598352    -0.13000
F154        F  0.18598896  0.43409094  0.03798510    -0.15400
F155        F  0.07368897  0.42544886  0.10840130    -0.15400
F156        F  0.11095701  0.38421574  0.11997275    -0.13000
C157        C  0.36618900  0.08666668  0.23998290     0.25000
C158        C  0.38794339  0.13600901  0.25034070    -0.23100
C159        C  0.42995619  0.16288032  0.26237627     0.19900
C160        C  0.44897185  0.14095363  0.26565257     0.24900
C161        C  0.42667458  0.09175311  0.25726646    -0.23100
C162        C  0.38546198  0.06474898  0.24334020     0.19800
F163        F  0.36414003  0.51697937  0.23584652    -0.13000
F164        F  0.32609050  0.05945450  0.22725639    -0.15400
F165        F  0.48917816  0.16803259  0.27810601    -0.15400
F166        F  0.45257064  0.21048639  0.27281596    -0.13000
C167        C  0.46160466  0.35398109  0.25552987     0.25000
C168        C  0.45052044  0.38152700  0.27282930    -0.23100
C169        C  0.41320683  0.35844923  0.28359966     0.19900
C170        C  0.38768018  0.30953908  0.27713902     0.24900
C171        C  0.39877575  0.28203145  0.26003262    -0.23100
C172        C  0.43603128  0.30482386  0.24924849     0.19800
F173        F  0.44774231  0.27956056  0.23239289    -0.13000
F174        F  0.49747239  0.37437614  0.24507450    -0.15400
F175        F  0.35276978  0.28942807  0.28888824    -0.15400
F176        F  0.40136721  0.38302595  0.30112126    -0.13000
C177        C  0.23904433  0.08567181  0.25150823     0.25000
C178        C  0.26488505  0.13492756  0.25587726    -0.23100
C179        C  0.24848126  0.16079859  0.26412559     0.19900
C180        C  0.20855125  0.13858186  0.26949185     0.24900
C181        C  0.18357990  0.08992525  0.26636281    -0.23100
C182        C  0.19890099  0.06350186  0.25669292     0.19800
F183        F  0.17569307  0.01640547  0.25368411    -0.13000
F184        F  0.25255536  0.05868534  0.24264360    -0.15400
F185        F  0.19438785  0.16498841  0.27800357    -0.15400
F186        F  0.27108579  0.20800247  0.26780501    -0.13000
C187        C  0.44261856  0.14106209  0.02277391     0.25000
C188        C  0.42074890  0.09187608  0.01310449    -0.23100
C189        C  0.37753543  0.06595171  0.49283339     0.19900
C190        C  0.35739568  0.08641303  0.48804247     0.24900
C191        C  0.38280118  0.13612373  0.00374464    -0.23100
C192        C  0.42386643  0.16295056  0.01831011     0.19800
F193        F  0.44555573  0.21026127  0.02984036    -0.13000
F194        F  0.48205859  0.16813974  0.03719116    -0.15400
F195        F  0.32281770  0.06160674  0.46653543    -0.15400
F196        F  0.35338396  0.51339940  0.49245629    -0.13000
C197        C  0.37766641  0.30230274  0.99540502     0.25000
C198        C  0.39149822  0.27947823  0.00814498    -0.23100
C199        C  0.43040027  0.30662984  0.02657353     0.19900
C200        C  0.45488791  0.35537113  0.03244851     0.24900
C201        C  0.44117235  0.37878268  0.02015287    -0.23100
C202        C  0.40234106  0.35152238  0.00119250     0.19800
F203        F  0.38806658  0.37225971  0.98827081    -0.13000
F204        F  0.32837071  0.27840949  0.49088449    -0.15400
F205        F  0.49188642  0.37940259  0.05087030    -0.15400
F206        F  0.44437361  0.28627039  0.04031305    -0.13000
C207        C  0.19100379  0.10644381  0.99522289     0.25000
C208        C  0.18188941  0.09549830  0.02377093    -0.23100
C209        C  0.21263967  0.10339537  0.04545406     0.19900
C210        C  0.25182864  0.12251163  0.03891407     0.24900
C211        C  0.26118921  0.13487093  0.01086803    -0.23100
C212        C  0.22265916  0.12961687  0.48852796     0.19800
F213        F  0.23154923  0.14545890  0.46264075    -0.13000
F214        F  0.15487277  0.10633793  0.47582681    -0.15400
F215        F  0.28095380  0.12995184  0.06029968    -0.15400
F216        F  0.20451249  0.09144446  0.07269488    -0.13000
C217        C  0.29430475  0.15487795  0.50219663     0.81600
N218        N  0.31734615  0.20102546  0.50187589    -0.76700
C219        C  0.35778402  0.22394011  0.50107636     0.84100
N220        N  0.37459125  0.20012882  0.50073452    -0.76600
C221        C  0.35218185  0.15439500  0.50113919     0.84200
N222        N  0.31198660  0.13183157  0.50221540    -0.78400
C223        C  0.30907464  0.17022763  0.75124844     0.81600
N224        N  0.33275839  0.21702740  0.75306492    -0.76700
C225        C  0.37328402  0.24052583  0.75315644     0.84100
N226        N  0.39033090  0.21684098  0.75169380    -0.76600
C227        C  0.36752571  0.17018094  0.75016650     0.84200
N228        N  0.32684138  0.14703744  0.75003135    -0.78400
C229        C  0.22804811  0.38544320  0.58751753     0.81600
N230        N  0.21078746  0.40848284  0.58546051    -0.76700
C231        C  0.17032517  0.38647866  0.58510537     0.84100
N232        N  0.14680337  0.34088133  0.58615295    -0.76600
C233        C  0.16340580  0.31706840  0.58776840     0.84200
N234        N  0.20404050  0.33970953  0.58841966    -0.78400
C235        C  0.23922491  0.40087051  0.84335282     0.81600
N236        N  0.22106723  0.42329408  0.84277915    -0.76700
C237        C  0.18071835  0.40043683  0.84377970     0.84100
N238        N  0.15881374  0.35507801  0.84537333    -0.76600
C239        C  0.17639696  0.33219332  0.84617700     0.84200
N240        N  0.21662598  0.35536885  0.84488456    -0.78400
C241        C  0.13225553  0.07068853  0.52948837     0.77800
Tb242      Tb  0.46245102  0.02179798  0.54346059     1.80700
O243        O  0.12519344  0.07050173  0.55676202    -0.50200
O244        O  0.08394747  0.49544917  0.58205789    -0.57600
C245        C  0.05556664  0.11437229  0.56368422     0.93700
O246        O  0.45889337  0.08574205  0.54694113    -0.57100
Tb247      Tb  0.05403289  0.01937542  0.54369094     1.78100
O248        O  0.40255957  0.45597419  0.54819677    -0.57600
O249        O  0.99806334  0.44804403  0.54312586    -0.76500
O250        O  0.06599842  0.09220445  0.54556655    -0.75800
O251        O  0.02566276  0.99911570  0.99467783    -0.61000
C252        C  0.46390405  0.42741508  0.52545576     0.93300
O253        O  0.98331336  0.01520364  0.59054843    -0.73000
C254        C  0.38697434  0.97403057  0.56276158     0.76700
C255        C  0.08977294  0.47115485  0.56142776     0.77700
O256        O  0.10034247  0.04747816  0.50922798    -0.58200
O257        O  0.07860039  0.46948156  0.53425124    -0.50200
O258        O  0.99257125  0.03475444  0.49916677    -0.76200
O259        O  0.04921573  0.04468067  0.59470470    -0.60200
C260        C  0.01733824  0.03115000  0.60647228     0.91500
C261        C  0.01242214  0.01966088  0.98410033     0.92700
C262        C  0.43247518  0.06828732  0.52302752     0.77000
O263        O  0.41488067  0.01694240  0.57428635    -0.49600
O264        O  0.42016779  0.52203065  0.51417413    -0.50700
O265        O  0.45248586  0.45060804  0.51646819    -0.63600
O266        O  0.02144280  0.09286814  0.57241655    -0.64700
C267        C  0.14407069  0.07905522  0.77469537     0.77800
Tb268      Tb  0.47690538  0.03715792  0.79644448     1.80700
O269        O  0.13565873  0.10002233  0.79567406    -0.50200
O270        O  0.11520705  0.53093009  0.83491809    -0.57600
C271        C  0.07410601  0.12939211  0.82010148     0.93700
O272        O  0.47040160  0.09898230  0.79893126    -0.57100
Tb273      Tb  0.07019992  0.03457331  0.79679979     1.78100
O274        O  0.41107323  0.47465352  0.79451817    -0.57600
O275        O  0.01254344  0.46575004  0.77188575    -0.76500
O276        O  0.08574514  0.10554802  0.82761802    -0.75800
O277        O  0.05330754  0.05140298  0.75312060    -0.61000
C278        C  0.47982058  0.44442034  0.78246526     0.93300
O279        O  0.00981119  0.05758718  0.84702710    -0.73000
C280        C  0.40224693  0.99183454  0.81704973     0.76700
C281        C  0.10221137  0.48912112  0.82205440     0.77700
O282        O  0.11515793  0.03632742  0.76383345    -0.58200
O283        O  0.07314912  0.46979286  0.79974423    -0.50200
O284        O  0.98635121  0.01573779  0.74634004    -0.76200
O285        O  0.04013937  0.02113254  0.84129156    -0.60200
C286        C  0.02371313  0.03758594  0.85760527     0.91500
C287        C  0.01954944  0.03351768  0.73605877     0.92700
C288        C  0.44466270  0.08071653  0.77438823     0.77000
O289        O  0.43277592  0.03258847  0.83099839    -0.49600
O290        O  0.44224277  0.54626655  0.76355682    -0.50700
O291        O  0.47006595  0.46726044  0.80070054    -0.63600
O292        O  0.04030615  0.11001892  0.80237281    -0.64700
C293        C  0.04117367  0.51625099  0.90697446     0.25000
C294        C  0.02055639  0.03283907  0.88995604    -0.23100
C295        C  0.99991957  0.04720129  0.90818232     0.19900
C296        C  0.99649645  0.04198147  0.93836083     0.24900
C297        C  0.01370338  0.02235474  0.95129976    -0.23100
C298        C  0.03756635  0.51119485  0.93711695     0.19800
F299        F  0.55486141  0.49256961  0.94880978    -0.13000
F300        F  0.56198891  0.50238466  0.89105504    -0.15400
F301        F  0.97606845  0.05616676  0.95475900    -0.15400
F302        F  0.98278169  0.06633592  0.89696663    -0.13000
C303        C  0.04674806  0.02889064  0.68710946     0.25000
C304        C  0.01930654  0.03349110  0.70304677    -0.23100
C305        C  0.49237936  0.03918294  0.68731663     0.19900
C306        C  0.49228987  0.03924033  0.65609548     0.24900
C307        C  0.01929334  0.03383986  0.63997057    -0.23100
C308        C  0.04694017  0.02938595  0.65593451     0.19800
F309        F  0.07319392  0.02375680  0.64115187    -0.13000
F310        F  0.07252762  0.02229329  0.70140216    -0.15400
F311        F  0.46601537  0.04513198  0.64177449    -0.15400
F312        F  0.46682178  0.04587856  0.70234765    -0.13000
C313        C  0.10820781  0.25566775  0.84187150     0.25000
C314        C  0.15085344  0.28096119  0.84459454    -0.22300
C315        C  0.16818546  0.25582415  0.84350133     0.19900
C316        C  0.14341382  0.20667147  0.83708777     0.24900
C317        C  0.10079300  0.18143693  0.83145414    -0.23100
C318        C  0.08364500  0.20665389  0.83528466     0.19800
F319        F  0.04281804  0.18381976  0.83266717    -0.13000
F320        F  0.08970611  0.27788932  0.84478161    -0.15400
F321        F  0.16136363  0.18391405  0.83517185    -0.15400
F322        F  0.20912172  0.27840457  0.84781825    -0.13000
C323        C  0.29357587  0.39736410  0.82099771     0.25000
C324        C  0.28205788  0.42390783  0.83894825    -0.23100
C325        C  0.31134197  0.47262365  0.85121984     0.19900
C326        C  0.35129312  0.49424940  0.84568094     0.24900
C327        C  0.36238279  0.46783142  0.82694559    -0.23100
C328        C  0.33301185  0.41920231  0.81461132     0.19800
F329        F  0.34212734  0.39260825  0.79589801    -0.13000
F330        F  0.26613077  0.35041524  0.80828618    -0.15400
F331        F  0.37591266  0.04409995  0.85075068    -0.15400
F332        F  0.30135311  0.49937806  0.86860520    -0.13000
C333        C  0.18040701  0.47194258  0.85160098     0.25000
C334        C  0.15980529  0.42301472  0.84033465    -0.23100
C335        C  0.11913197  0.39576487  0.82478248     0.19900
C336        C  0.09991190  0.41710987  0.82000088     0.24900
C337        C  0.12084390  0.46614097  0.83058144    -0.23100
C338        C  0.16109557  0.49329668  0.84686455     0.19800
F339        F  0.18248029  0.54081637  0.85707893    -0.13000
F340        F  0.21934715  0.49923005  0.86715141    -0.15400
F341        F  0.06093040  0.38972234  0.80447491    -0.15400
F342        F  0.09836589  0.34857924  0.81279886    -0.13000
C343        C  0.06971179  0.19421946  0.58370932     0.25000
C344        C  0.08377647  0.16647824  0.57378472    -0.23100
C345        C  0.12523695  0.18916417  0.57201820     0.19900
C346        C  0.15130198  0.23795028  0.57764262     0.24900
C347        C  0.13680468  0.26575398  0.58559128    -0.23100
C348        C  0.09588731  0.24328209  0.58951238     0.19800
F349        F  0.08078704  0.26854036  0.59855450    -0.13000
F350        F  0.03032162  0.17398182  0.58685599    -0.15400
F351        F  0.19044329  0.25738056  0.57404500    -0.15400
F352        F  0.14084558  0.16413512  0.56452937    -0.13000
C353        C  0.32713965  0.40445832  0.57110681     0.25000
C354        C  0.35397621  0.45377193  0.57878213    -0.23100
C355        C  0.33279715  0.97679348  0.58620864     0.19900
C356        C  0.29962179  0.45835553  0.59590656     0.24900
C357        C  0.27199189  0.40891044  0.58648946    -0.23100
C358        C  0.28660651  0.38224482  0.57479469     0.19800
F359        F  0.26131067  0.33461046  0.56515746    -0.13000
F360        F  0.33985663  0.37753877  0.55924579    -0.15400
F361        F  0.28065251  0.98141715  0.60495383    -0.15400
F362        F  0.35903877  0.02428021  0.59710020    -0.13000
C363        C  0.15803003  0.43079748  0.55546462     0.25000
C364        C  0.15116954  0.41015792  0.58036112    -0.23100
C365        C  0.12428354  0.41011056  0.59945921     0.19900
C366        C  0.10449958  0.43057424  0.59370711     0.24900
C367        C  0.11039331  0.44980949  0.56815325    -0.23100
C368        C  0.13753455  0.45010398  0.54924667     0.19800
F369        F  0.14486220  0.46998961  0.52506000    -0.13000
F370        F  0.18343877  0.43068894  0.53643534    -0.15400
F371        F  0.07884929  0.43048217  0.61253847    -0.15400
F372        F  0.11752828  0.39063365  0.62379807    -0.13000
C373        C  0.36734979  0.09780935  0.74195223     0.25000
C374        C  0.38808981  0.14690105  0.75308077    -0.23100
C375        C  0.42862406  0.17387435  0.76890169     0.19900
C376        C  0.44706634  0.15223286  0.77492911     0.24900
C377        C  0.42610393  0.10322390  0.76464264    -0.23100
C378        C  0.38642272  0.07624479  0.74730540     0.19800
F379        F  0.37185830  0.53236575  0.73959952    -0.13000
F380        F  0.32853322  0.07059013  0.72615193    -0.15400
F381        F  0.48552342  0.17950465  0.79136666    -0.15400
F382        F  0.45014673  0.22129189  0.78008275    -0.13000
C383        C  0.46165958  0.36462796  0.75404316     0.25000
C384        C  0.45244419  0.39204357  0.77413299    -0.23100
C385        C  0.41662620  0.36869202  0.78675070     0.19900
C386        C  0.39032891  0.31969695  0.77892447     0.24900
C387        C  0.39954079  0.29240463  0.75896131    -0.23100
C388        C  0.43561119  0.31536552  0.74674589     0.19800
F389        F  0.44566232  0.29010780  0.72760235    -0.13000
F390        F  0.49615936  0.38523701  0.74177963    -0.15400
F391        F  0.35686339  0.29909789  0.79238296    -0.15400
F392        F  0.40742443  0.39304887  0.80770567    -0.13000
C393        C  0.23843808  0.09673010  0.74743258     0.25000
C394        C  0.26528238  0.14621513  0.75400210    -0.23100
C395        C  0.25014497  0.17277768  0.76478283     0.19900
C396        C  0.21040417  0.15076723  0.77055946     0.24900
C397        C  0.18437827  0.10167834  0.76518645    -0.23100
C398        C  0.19837392  0.07475500  0.75272259     0.19800
F399        F  0.17387383  0.02713468  0.74695014    -0.13000
F400        F  0.25091015  0.06932598  0.73625400    -0.15400
F401        F  0.19751463  0.17776615  0.78168534    -0.15400
F402        F  0.27397709  0.22040311  0.77085881    -0.13000
C403        C  0.42969630  0.13761869  0.53139661     0.25000
C404        C  0.41364181  0.09121089  0.51490360    -0.23100
C405        C  0.38060334  0.06522736  0.99677479     0.19900
C406        C  0.36183151  0.08718353  0.99209356     0.24900
C407        C  0.37313062  0.13234133  0.50513697    -0.23100
C408        C  0.40959415  0.15783295  0.52664492     0.19800
F409        F  0.42499795  0.20184205  0.54417754    -0.13000
F410        F  0.46451985  0.16340068  0.55272311    -0.15400
F411        F  0.32298461  0.06045611  0.97643697    -0.15400
F412        F  0.35870117  0.51658135  0.98744313    -0.13000
C413        C  0.36887079  0.30096557  0.50024440     0.25000
C414        C  0.38479241  0.27563190  0.50448564    -0.23100
C415        C  0.42731654  0.30073004  0.51339576     0.19900
C416        C  0.45276328  0.34953980  0.51912637     0.24900
C417        C  0.43675754  0.37511156  0.51618136    -0.23100
C418        C  0.39458356  0.35008793  0.50579154     0.19800
F419        F  0.37783664  0.37304028  0.50170460    -0.13000
F420        F  0.34052172  0.27695830  0.97702746    -0.15400
F421        F  0.49335094  0.37166951  0.52776576    -0.15400
F422        F  0.44480840  0.27858569  0.51765486    -0.13000
C423        C  0.18328793  0.10939006  0.49526675     0.25000
C424        C  0.17364454  0.09317498  0.52217276    -0.23100
C425        C  0.20361336  0.09642957  0.54170713     0.19900
C426        C  0.24237131  0.11530931  0.53450214     0.24900
C427        C  0.25237016  0.13249941  0.50808835    -0.23100
C428        C  0.23056905  0.12662699  0.98902364     0.19800
F429        F  0.23892902  0.13754693  0.96153935    -0.13000
F430        F  0.16183787  0.09836881  0.97357200    -0.15400
F431        F  0.27057355  0.11784001  0.55383238    -0.15400
F432        F  0.19511735  0.08016794  0.56746974    -0.13000
C433        C  0.30260562  0.65839633  0.00616762     0.81600
N434        N  0.32501768  0.70355522  0.00398355    -0.76700
C435        C  0.36483638  0.72568283  0.00147225     0.84100
N436        N  0.38181643  0.70198654  0.00108388    -0.76600
C437        C  0.35988448  0.65695063  0.00325026     0.84200
N438        N  0.32024274  0.63533262  0.00620378    -0.78400
C439        C  0.30989755  0.65919291  0.25496337     0.81600
N440        N  0.33300619  0.70589509  0.25649161    -0.76700
C441        C  0.37313082  0.72952125  0.25497568     0.84100
N442        N  0.39030530  0.70592657  0.25199931    -0.76600
C443        C  0.36806129  0.65929346  0.25046223     0.84200
N444        N  0.32772547  0.63600892  0.25205380    -0.78400
C445        C  0.22893283  0.88981231  0.08957830     0.81600
N446        N  0.21159190  0.91282147  0.08812744    -0.76700
C447        C  0.17141920  0.89115018  0.08923694     0.84100
N448        N  0.14850477  0.84600562  0.09149902    -0.76600
C449        C  0.16540841  0.82236648  0.09280015     0.84200
N450        N  0.20561512  0.84463488  0.09156955    -0.78400
C451        C  0.23361976  0.89097576  0.33845348     0.81600
N452        N  0.21598188  0.91427983  0.34053753    -0.76700
C453        C  0.17631659  0.89205222  0.34378832     0.84100
N454        N  0.15469640  0.84656934  0.34512729    -0.76600
C455        C  0.17178019  0.82283005  0.34326827     0.84200
N456        N  0.21123241  0.84527300  0.33955610    -0.78400
C457        C  0.14127635  0.57719974  0.03410567     0.77800
Tb458      Tb  0.46903043  0.52439989  0.04730390     1.80700
O459        O  0.13398651  0.57763038  0.06134312    -0.50200
O460        O  0.08308430  0.99741136  0.08037707    -0.57600
C461        C  0.06183307  0.61936833  0.06983332     0.93700
O462        O  0.46403553  0.58700856  0.04938190    -0.57100
Tb463      Tb  0.06282583  0.52540391  0.04798543     1.78100
O464        O  0.39930956  0.95916468  0.04086956    -0.57600
O465        O  0.00090609  0.94994074  0.04044092    -0.76500
O466        O  0.07487088  0.59897376  0.05310816    -0.75800
O467        O  0.02606800  0.49736539  0.49754984    -0.61000
C468        C  0.46607280  0.92848428  0.02394634     0.93300
O469        O  0.98645950  0.50719133  0.09055579    -0.73000
C470        C  0.39410727  0.47773830  0.06765650     0.76700
C471        C  0.09054290  0.97387324  0.06056348     0.77700
O472        O  0.10945106  0.55326995  0.01369894    -0.58200
O473        O  0.08128431  0.97275472  0.03303628    -0.50200
O474        O  0.00228986  0.54309967  0.00489051    -0.76200
O475        O  0.05371946  0.54769337  0.09810571    -0.60200
C476        C  0.02033764  0.52695909  0.10808880     0.91500
C477        C  0.01368891  0.51851301  0.48676077     0.92700
C478        C  0.43764064  0.56834028  0.02522443     0.77000
O479        O  0.42371597  0.51936915  0.08094509    -0.49600
O480        O  0.42498791  0.02637002  0.01014097    -0.50700
O481        O  0.45297261  0.95046986  0.01548143    -0.63600
O482        O  0.02673705  0.59628437  0.07709825    -0.64700
C483        C  0.14423142  0.56882518  0.27760613     0.77800
Tb484      Tb  0.47366055  0.52500331  0.29557302     1.80700
O485        O  0.13615113  0.58971136  0.29889577    -0.50200
O486        O  0.11350320  0.02387548  0.33109456    -0.57600
C487        C  0.07012023  0.62009774  0.32089229     0.93700
O488        O  0.47193491  0.58901927  0.29372458    -0.57100
Tb489      Tb  0.06935355  0.52629265  0.29856217     1.78100
O490        O  0.40447464  0.96264596  0.28731349    -0.57600
O491        O  0.00965140  0.95400477  0.26765597    -0.76500
O492        O  0.08306194  0.59721787  0.32803510    -0.75800
O493        O  0.05288202  0.54489129  0.25553810    -0.61000
C494        C  0.47652990  0.93289643  0.27801832     0.93300
O495        O  0.00376498  0.54479362  0.34706468    -0.73000
C496        C  0.39664119  0.48038731  0.31342248     0.76700
C497        C  0.09826214  0.98069447  0.32122635     0.77700
O498        O  0.11434881  0.52683195  0.26563155    -0.58200
O499        O  0.06718467  0.95939717  0.30037770    -0.50200
O500        O  0.98555504  0.50220732  0.24674633    -0.76200
O501        O  0.04098613  0.51651539  0.34383239    -0.60200
C502        C  0.02168494  0.52979670  0.35898052     0.91500
C503        C  0.01924323  0.52357044  0.23726979     0.92700
C504        C  0.44530262  0.56924383  0.26956707     0.77000
O505        O  0.42732024  0.52038500  0.32833684    -0.49600
O506        O  0.43407234  0.02832639  0.25456429    -0.50700
O507        O  0.46606957  0.95575304  0.29531076    -0.63600
O508        O  0.03539045  0.59986563  0.30433922    -0.64700
C509        C  0.03265622  0.00512157  0.40268524     0.25000
C510        C  0.02001241  0.52735504  0.39181630    -0.23100
C511        C  0.99552106  0.53676392  0.40862778     0.19900
C512        C  0.99347897  0.53380838  0.43928834     0.24900
C513        C  0.01545289  0.52080653  0.45398650    -0.23100
C514        C  0.02848358  0.00065676  0.43292222     0.19800
F515        F  0.54794438  0.98548284  0.44611038    -0.13000
F516        F  0.55597798  0.99398838  0.38809178    -0.15400
F517        F  0.96913237  0.54283406  0.45430137    -0.15400
F518        F  0.97273226  0.54808972  0.39538256    -0.13000
C519        C  0.05581256  0.55612721  0.19445924     0.25000
C520        C  0.01962894  0.52386896  0.20411062    -0.23100
C521        C  0.48423565  0.49192320  0.18168775     0.19900
C522        C  0.48461606  0.49276917  0.15058940     0.24900
C523        C  0.02037104  0.52553186  0.14102594    -0.23100
C524        C  0.05614109  0.55696029  0.16334376     0.19800
F525        F  0.09145323  0.58943757  0.15530520    -0.13000
F526        F  0.09101667  0.58767744  0.21515814    -0.15400
F527        F  0.44964519  0.46060443  0.12973424    -0.15400
F528        F  0.44905359  0.45884796  0.18955631    -0.13000
C529        C  0.10383813  0.74649375  0.34031325     0.25000
C530        C  0.14636802  0.77168139  0.34202375    -0.22300
C531        C  0.16378049  0.74664938  0.34084617     0.19900
C532        C  0.13918350  0.69771398  0.33594608     0.24900
C533        C  0.09656684  0.67233468  0.33126267    -0.23100
C534        C  0.07934561  0.69753434  0.33468388     0.19800
F535        F  0.03857398  0.67483840  0.33265034    -0.13000
F536        F  0.08535648  0.76873609  0.34332122    -0.15400
F537        F  0.15724850  0.67515729  0.33468390    -0.15400
F538        F  0.20464241  0.76913712  0.34384597    -0.13000
C539        C  0.28552528  0.88812109  0.31123012     0.25000
C540        C  0.27577212  0.91373630  0.33242362    -0.23100
C541        C  0.30639839  0.96123207  0.34720262     0.19900
C542        C  0.34604218  0.98272690  0.34091222     0.24900
C543        C  0.35560842  0.95732425  0.31919601    -0.23100
C544        C  0.32482871  0.90974105  0.30449590     0.19800
F545        F  0.33255721  0.88393967  0.28332168    -0.13000
F546        F  0.25658896  0.84243031  0.29604976    -0.15400
F547        F  0.37381831  0.52912568  0.35686791    -0.15400
F548        F  0.29807206  0.98668819  0.36810217    -0.13000
C549        C  0.17583605  0.96369880  0.35287790     0.25000
C550        C  0.15516345  0.91472779  0.34174437    -0.23100
C551        C  0.11428896  0.88743866  0.32669504     0.19900
C552        C  0.09520290  0.90876839  0.32155972     0.24900
C553        C  0.11648385  0.95794016  0.33118284    -0.23100
C554        C  0.15669738  0.98514099  0.34765460     0.19800
F555        F  0.17824955  0.03271844  0.35747192    -0.13000
F556        F  0.21473742  0.99092234  0.36851484    -0.15400
F557        F  0.05618269  0.88116030  0.30611095    -0.15400
F558        F  0.09328572  0.84015933  0.31511001    -0.13000
C559        C  0.07242409  0.69778059  0.08682240     0.25000
C560        C  0.08859537  0.67164067  0.08025095    -0.23100
C561        C  0.13090972  0.69610194  0.08179158     0.19900
C562        C  0.15602780  0.74504951  0.08766511     0.24900
C563        C  0.13949563  0.77116297  0.09158807    -0.23100
C564        C  0.09742852  0.74686777  0.09211493     0.19800
F565        F  0.07996747  0.77019846  0.09695439    -0.13000
F566        F  0.03208045  0.67583321  0.08686704    -0.15400
F567        F  0.19650395  0.76634873  0.08848540    -0.15400
F568        F  0.14827019  0.67262432  0.07724652    -0.13000
C569        C  0.32131016  0.90622626  0.05973876     0.25000
C570        C  0.35186866  0.95402467  0.07391792    -0.23100
C571        C  0.34043844  0.48071099  0.09210170     0.19900
C572        C  0.30218721  0.95921077  0.10015288     0.24900
C573        C  0.27157491  0.91170014  0.08536983    -0.23100
C574        C  0.28163911  0.88533884  0.06537847     0.19800
F575        F  0.25256625  0.83982121  0.04995589    -0.13000
F576        F  0.32959886  0.87963574  0.03996019    -0.15400
F577        F  0.28839425  0.48550586  0.11089434    -0.15400
F578        F  0.36665543  0.52826973  0.10250135    -0.13000
C579        C  0.15968092  0.93469107  0.05833485     0.25000
C580        C  0.15164729  0.91387556  0.08325009    -0.23100
C581        C  0.12331903  0.91302421  0.10101653     0.19900
C582        C  0.10345313  0.93294738  0.09396996     0.24900
C583        C  0.11085274  0.95264597  0.06853281    -0.23100
C584        C  0.13924787  0.95353334  0.05089710     0.19800
F585        F  0.14792933  0.97363042  0.02676706    -0.13000
F586        F  0.18638109  0.93538437  0.04044659    -0.15400
F587        F  0.07634603  0.93199259  0.11146376    -0.15400
F588        F  0.11536280  0.89352716  0.12539058    -0.13000
C589        C  0.36722444  0.58653017  0.24054033     0.25000
C590        C  0.38896847  0.63586407  0.25057787    -0.23100
C591        C  0.43101857  0.66285465  0.26251594     0.19900
C592        C  0.44987975  0.64096234  0.26661217     0.24900
C593        C  0.42746424  0.59172079  0.25872918    -0.23100
C594        C  0.38641952  0.56468145  0.24436056     0.19800
F595        F  0.36314354  0.01703437  0.23485336    -0.13000
F596        F  0.32716915  0.55927157  0.22768086    -0.15400
F597        F  0.49001120  0.66812407  0.27929082    -0.15400
F598        F  0.45377487  0.71055854  0.27207310    -0.13000
C599        C  0.46044024  0.85293090  0.25318765     0.25000
C600        C  0.44975416  0.88062719  0.27088973    -0.23100
C601        C  0.41306415  0.85771948  0.28251631     0.19900
C602        C  0.38794875  0.80889113  0.27668797     0.24900
C603        C  0.39874738  0.78123192  0.25931367    -0.23100
C604        C  0.43526251  0.80382491  0.24755244     0.19800
F605        F  0.44658774  0.77839984  0.23034269    -0.13000
F606        F  0.49544615  0.87313745  0.24155354    -0.15400
F607        F  0.35378139  0.78909699  0.28933827    -0.15400
F608        F  0.40144759  0.88237926  0.30028540    -0.13000
C609        C  0.23812923  0.58593148  0.24872436     0.25000
C610        C  0.26655474  0.63526221  0.25890953    -0.23100
C611        C  0.25324750  0.66202361  0.27362650     0.19900
C612        C  0.21330097  0.64032178  0.27857796     0.24900
C613        C  0.18518298  0.59118823  0.26905700    -0.23100
C614        C  0.19778241  0.56414994  0.25358887     0.19800
F615        F  0.17149624  0.51653130  0.24404681    -0.13000
F616        F  0.24923405  0.55863435  0.23406715    -0.15400
F617        F  0.20235330  0.66784110  0.29308025    -0.15400
F618        F  0.27912880  0.70947245  0.28445092    -0.13000
C619        C  0.44007914  0.63982835  0.02660753     0.25000
C620        C  0.41930205  0.59093856  0.01566465    -0.23100
C621        C  0.37609264  0.56114067  0.50030958     0.19900
C622        C  0.35725744  0.58308630  0.49564504     0.24900
C623        C  0.38057308  0.63410885  0.00605616    -0.23100
C624        C  0.42080684  0.66108296  0.02226971     0.19800
F625        F  0.44095680  0.70779914  0.03561145    -0.13000
F626        F  0.47901571  0.66721850  0.04212522    -0.15400
F627        F  0.31744449  0.55581331  0.48209795    -0.15400
F628        F  0.36103432  0.02103527  0.47655845    -0.13000
C629        C  0.37419010  0.80031206  0.99682394     0.25000
C630        C  0.39099161  0.77685674  0.00362868    -0.23100
C631        C  0.43309981  0.80354293  0.01477027     0.19900
C632        C  0.45732633  0.85228895  0.02040026     0.24900
C633        C  0.44037123  0.87617802  0.01497554    -0.23100
C634        C  0.39861880  0.84942241  0.00233440     0.19800
F635        F  0.38097467  0.87063468  0.99607139    -0.13000
F636        F  0.33887776  0.77124258  0.47306174    -0.15400
F637        F  0.49751298  0.87594771  0.03185303    -0.15400
F638        F  0.45111348  0.78306090  0.02175861    -0.13000
C639        C  0.19196352  0.61316025  0.99917914     0.25000
C640        C  0.18275632  0.59949634  0.02696523    -0.23100
C641        C  0.21316441  0.60477268  0.04742835     0.19900
C642        C  0.25183357  0.62289623  0.04015140     0.24900
C643        C  0.26110881  0.63700319  0.01263904    -0.23100
C644        C  0.22947093  0.63483980  0.49400116     0.19800
F645        F  0.23999706  0.65627104  0.47053690    -0.13000
F646        F  0.16376137  0.61849271  0.48422511    -0.15400
F647        F  0.28061960  0.62778252  0.06040106    -0.15400
F648        F  0.20517164  0.59111706  0.07414247    -0.13000
C649        C  0.29950805  0.65479341  0.50528387     0.81600
N650        N  0.32166987  0.70077596  0.50502578    -0.76700
C651        C  0.36202726  0.72458259  0.50431510     0.84100
N652        N  0.38009829  0.70196823  0.50368899    -0.76600
C653        C  0.35829072  0.65579088  0.50349521     0.84200
N654        N  0.31799266  0.63256925  0.50480840    -0.78400
C655        C  0.31162880  0.66992608  0.75534429     0.81600
N656        N  0.33446341  0.71621006  0.75576782    -0.76700
C657        C  0.37485511  0.74010536  0.75528511     0.84100
N658        N  0.39273114  0.71741589  0.75465288    -0.76600
C659        C  0.37065415  0.67121545  0.75435573     0.84200
N660        N  0.33007260  0.64760529  0.75480837    -0.78400
C661        C  0.22068085  0.88266267  0.58109175     0.81600
N662        N  0.20183514  0.90339895  0.57697537    -0.76700
C663        C  0.16158211  0.88082032  0.57811512     0.84100
N664        N  0.14011800  0.83716043  0.58294765    -0.76600
C665        C  0.15852978  0.81584108  0.58675096     0.84200
N666        N  0.19880370  0.83897729  0.58572163    -0.78400
C667        C  0.23866881  0.90242648  0.84260448     0.81600
N668        N  0.21997350  0.92393953  0.84050031    -0.76700
C669        C  0.17938609  0.90047736  0.84058865     0.84100
N670        N  0.15764798  0.85533171  0.84270593    -0.76600
C671        C  0.17587929  0.83346958  0.84520570     0.84200
N672        N  0.21635837  0.85732580  0.84490465    -0.78400
C673        C  0.13831294  0.57325578  0.53356459     0.77800
Tb674      Tb  0.46727876  0.52159763  0.54656225     1.80700
O675        O  0.13148323  0.57272712  0.56083443    -0.50200
O676        O  0.07919792  0.99241137  0.57531930    -0.57600
C677        C  0.05915797  0.61530695  0.57079127     0.93700
O678        O  0.46800304  0.58702754  0.54323589    -0.57100
Tb679      Tb  0.06021289  0.52136249  0.54800831     1.78100
O680        O  0.39724889  0.95427816  0.54259361    -0.57600
O681        O  0.99278835  0.95126232  0.54767391    -0.76500
O682        O  0.07212084  0.59499122  0.55387472    -0.75800
O683        O  0.02667011  0.50068639  0.99810764    -0.61000
C684        C  0.45923101  0.92774324  0.52921384     0.93300
O685        O  0.98463999  0.50682541  0.59135706    -0.73000
C686        C  0.39423301  0.47681863  0.56934797     0.76700
C687        C  0.08058662  0.96492765  0.55373630     0.77700
O688        O  0.10631681  0.55061912  0.51348951    -0.58200
O689        O  0.06692712  0.96268758  0.52714719    -0.50200
O690        O  0.99995496  0.53810070  0.50346416    -0.76200
O691        O  0.05158136  0.54260373  0.59837124    -0.60200
C692        C  0.01839859  0.52505621  0.60860531     0.91500
C693        C  0.01500332  0.52274867  0.98771643     0.92700
C694        C  0.43588225  0.56537200  0.52350501     0.77000
O695        O  0.42282925  0.51979772  0.57996765    -0.49600
O696        O  0.42229283  0.02831762  0.50817062    -0.50700
O697        O  0.44700995  0.94836215  0.51741492    -0.63600
O698        O  0.02426038  0.59218132  0.57817309    -0.64700
C699        C  0.14701914  0.57938968  0.77952812     0.77800
Tb700      Tb  0.47966001  0.53837133  0.80030307     1.80700
O701        O  0.13849346  0.60065762  0.80017975    -0.50200
O702        O  0.11218099  0.02870384  0.83050334    -0.57600
C703        C  0.07631981  0.63100353  0.82236966     0.93700
O704        O  0.47150957  0.59932056  0.80553661    -0.57100
Tb705      Tb  0.07267741  0.53569208  0.80084640     1.78100
O706        O  0.40930975  0.97309064  0.79356310    -0.57600
O707        O  0.00981992  0.96463515  0.76826513    -0.76500
O708        O  0.08845218  0.60778158  0.83024910    -0.75800
O709        O  0.05431900  0.54784225  0.75526995    -0.61000
C710        C  0.47755563  0.94326289  0.77942314     0.93300
O711        O  0.01360063  0.56024177  0.85068418    -0.73000
C712        C  0.40347585  0.49126914  0.81870672     0.76700
C713        C  0.10032650  0.98770096  0.81644555     0.77700
O714        O  0.11797035  0.53675612  0.76852919    -0.58200
O715        O  0.07209147  0.96924206  0.79361191    -0.50200
O716        O  0.98809972  0.51720325  0.74981006    -0.76200
O717        O  0.04221422  0.52196885  0.84497403    -0.60200
C718        C  0.02678643  0.53965668  0.86134357     0.91500
C719        C  0.02059079  0.53176840  0.73881232     0.92700
C720        C  0.44875969  0.58380585  0.77969785     0.77000
O721        O  0.43419868  0.53062632  0.83440938    -0.49600
O722        O  0.43572014  0.04107425  0.76001327    -0.50700
O723        O  0.46718828  0.96607303  0.79691700    -0.63600
O724        O  0.04242454  0.61084309  0.80459786    -0.64700
C725        C  0.03709661  0.01243941  0.90274180     0.25000
C726        C  0.02384248  0.53553113  0.89374634    -0.23100
C727        C  0.00262604  0.54937128  0.91157357     0.19900
C728        C  0.99928842  0.54462711  0.94181468     0.24900
C729        C  0.01697532  0.52579142  0.95510560    -0.23100
C730        C  0.03344393  0.00696290  0.93282357     0.19800
F731        F  0.54916196  0.98619200  0.94368068    -0.13000
F732        F  0.55657004  0.99694567  0.88614030    -0.15400
F733        F  0.97831903  0.55827819  0.95788758    -0.15400
F734        F  0.98461444  0.56723498  0.89982660    -0.13000
C735        C  0.04433013  0.52014289  0.68921629     0.25000
C736        C  0.01939569  0.52937403  0.70538850    -0.23100
C737        C  0.49427732  0.53710390  0.68941456     0.19900
C738        C  0.49368472  0.53519315  0.65784337     0.24900
C739        C  0.01878923  0.52642046  0.64181726    -0.23100
C740        C  0.04432419  0.51914762  0.65782269     0.19800
F741        F  0.06850444  0.50976385  0.64292499    -0.13000
F742        F  0.06805215  0.51090496  0.70361804    -0.15400
F743        F  0.46934562  0.54342219  0.64319942    -0.15400
F744        F  0.47114367  0.54809651  0.70455501    -0.13000
C745        C  0.10844800  0.75658027  0.84198447     0.25000
C746        C  0.15107786  0.78253868  0.84455090    -0.22300
C747        C  0.16918703  0.75830730  0.84441226     0.19900
C748        C  0.14510969  0.70922957  0.83883092     0.24900
C749        C  0.10244978  0.68318506  0.83325615    -0.23100
C750        C  0.08463970  0.70769056  0.83655764     0.19800
F751        F  0.04389473  0.68424308  0.83472371    -0.13000
F752        F  0.08927552  0.77802387  0.84401739    -0.15400
F753        F  0.16372994  0.68728421  0.83775094    -0.15400
F754        F  0.21020900  0.78164812  0.84883309    -0.13000
C755        C  0.29447444  0.89835435  0.82393970     0.25000
C756        C  0.28172519  0.92562701  0.83870431    -0.23100
C757        C  0.30989920  0.97496132  0.84788096     0.19900
C758        C  0.34973818  0.99642153  0.84212570     0.24900
C759        C  0.36177513  0.96908160  0.82623520    -0.23100
C760        C  0.33372256  0.91986984  0.81729410     0.19800
F761        F  0.34387706  0.89227301  0.80153509    -0.13000
F762        F  0.26838069  0.85070944  0.81439267    -0.15400
F763        F  0.37863480  0.54140682  0.85757797    -0.15400
F764        F  0.29890201  0.00253235  0.86224920    -0.13000
C765        C  0.17698425  0.97043638  0.84936161     0.25000
C766        C  0.15830689  0.92237520  0.83583353    -0.23100
C767        C  0.11960021  0.89549883  0.81694851     0.19900
C768        C  0.10033357  0.91648990  0.81124999     0.24900
C769        C  0.11916249  0.96470921  0.82456229    -0.23100
C770        C  0.15757501  0.99139953  0.84388118     0.19800
F771        F  0.17710947  0.03821337  0.85665524    -0.13000
F772        F  0.21398076  0.99712197  0.86810759    -0.15400
F773        F  0.06347129  0.88963856  0.79226933    -0.15400
F774        F  0.10103497  0.84922197  0.80286273    -0.13000
C775        C  0.06863363  0.69302935  0.58718581     0.25000
C776        C  0.08532711  0.66742541  0.58071350    -0.23100
C777        C  0.12740352  0.69216537  0.58105102     0.19900
C778        C  0.15150748  0.74059264  0.58459564     0.24900
C779        C  0.13427028  0.76592121  0.58827113    -0.23100
C780        C  0.09283021  0.74177177  0.59094668     0.19800
F781        F  0.07517673  0.76484551  0.59625467    -0.13000
F782        F  0.02848672  0.67082089  0.58835604    -0.15400
F783        F  0.19145056  0.76187862  0.58289286    -0.15400
F784        F  0.14534419  0.66930408  0.57712516    -0.13000
C785        C  0.31775650  0.90106644  0.56007298     0.25000
C786        C  0.34571819  0.95023960  0.57051567    -0.23100
C787        C  0.34028198  0.48052833  0.59233269     0.19900
C788        C  0.29223521  0.95480385  0.58996319     0.24900
C789        C  0.26398061  0.90584327  0.57850332    -0.23100
C790        C  0.27731885  0.87909179  0.56404440     0.19800
F791        F  0.25082953  0.83176726  0.55241561    -0.13000
F792        F  0.32931769  0.87416345  0.54553597    -0.15400
F793        F  0.28722676  0.48548333  0.60807245    -0.15400
F794        F  0.36565294  0.52827478  0.60070321    -0.13000
C795        C  0.14215418  0.91549923  0.54418182     0.25000
C796        C  0.14052111  0.90188455  0.57183149    -0.23100
C797        C  0.11772117  0.90732003  0.59295832     0.19900
C798        C  0.09746559  0.92706243  0.58682471     0.24900
C799        C  0.09895650  0.94055968  0.55910934    -0.23100
C800        C  0.12109363  0.93414886  0.53766346     0.19800
F801        F  0.12367073  0.94764715  0.51095709    -0.13000
F802        F  0.16373511  0.91014660  0.52330222    -0.15400
F803        F  0.07625240  0.93281400  0.60789074    -0.15400
F804        F  0.11615668  0.89485303  0.61996584    -0.13000
C805        C  0.37237921  0.60045740  0.74554347     0.25000
C806        C  0.39186170  0.64903565  0.75791334    -0.23100
C807        C  0.43145889  0.67629989  0.77547055     0.19900
C808        C  0.45016624  0.65511574  0.78190955     0.24900
C809        C  0.43040099  0.60649036  0.77020491    -0.23100
C810        C  0.39175303  0.57947232  0.75127840     0.19800
F811        F  0.36535261  0.02879120  0.73681559    -0.13000
F812        F  0.33452471  0.57322589  0.72805635    -0.15400
F813        F  0.48760909  0.68235584  0.79995303    -0.15400
F814        F  0.45155815  0.72332092  0.78783176    -0.13000
C815        C  0.46018796  0.86338794  0.75230508     0.25000
C816        C  0.45138570  0.89102091  0.77263815    -0.23100
C817        C  0.41706556  0.86805043  0.78692778     0.19900
C818        C  0.39140430  0.81912678  0.78013128     0.24900
C819        C  0.40014140  0.79164473  0.75984843    -0.23100
C820        C  0.43491606  0.81421145  0.74615016     0.19800
F821        F  0.44428130  0.78861340  0.72655279    -0.13000
F822        F  0.49350800  0.88373055  0.73866951    -0.15400
F823        F  0.35908810  0.79885205  0.79482521    -0.15400
F824        F  0.40892572  0.89278363  0.80860551    -0.13000
C825        C  0.24135603  0.59643139  0.75250497     0.25000
C826        C  0.26816281  0.64589025  0.75887986    -0.23100
C827        C  0.25332582  0.67260669  0.77006340     0.19900
C828        C  0.21375655  0.65079884  0.77603730     0.24900
C829        C  0.18750824  0.60171446  0.77041840    -0.23100
C830        C  0.20133788  0.57459672  0.75792951     0.19800
F831        F  0.17666974  0.52697190  0.75211355    -0.13000
F832        F  0.25376154  0.56898496  0.74122099    -0.15400
F833        F  0.20122938  0.67804072  0.78751267    -0.15400
F834        F  0.27730104  0.72024160  0.77630540    -0.13000
C835        C  0.43989370  0.63744979  0.52164731     0.25000
C836        C  0.41737198  0.58813350  0.51414888    -0.23100
C837        C  0.37960633  0.56394993  0.99840437     0.19900
C838        C  0.36040167  0.58545160  0.99359385     0.24900
C839        C  0.37914299  0.63248555  0.50510919    -0.23100
C840        C  0.42100766  0.65938132  0.51750189     0.19800
F841        F  0.44359526  0.70703721  0.52710514    -0.13000
F842        F  0.48022742  0.66472157  0.53369872    -0.15400
F843        F  0.32206428  0.55872130  0.97696628    -0.15400
F844        F  0.35875796  0.01765826  0.98665263    -0.13000
C845        C  0.37403055  0.79776751  0.49409917     0.25000
C846        C  0.38715796  0.77612311  0.50915912    -0.23100
C847        C  0.42366330  0.80434677  0.53071845     0.19900
C848        C  0.44681401  0.85323863  0.53711637     0.24900
C849        C  0.43409587  0.87544336  0.52201612    -0.23100
C850        C  0.39732608  0.84696937  0.50033401     0.19800
F851        F  0.38372976  0.86649750  0.48513776    -0.13000
F852        F  0.33400590  0.77584419  0.98506519    -0.15400
F853        F  0.48137158  0.87861455  0.55872701    -0.15400
F854        F  0.43614125  0.78465772  0.54686104    -0.13000
C855        C  0.19039457  0.61557131  0.50107604     0.25000
C856        C  0.17940210  0.59465752  0.52595682    -0.23100
C857        C  0.20754856  0.59205539  0.54301465     0.19900
C858        C  0.24593396  0.60976256  0.53527272     0.24900
C859        C  0.25739406  0.63171636  0.51091813    -0.23100
C860        C  0.23114444  0.63254770  0.99234122     0.19800
F861        F  0.23969551  0.64619657  0.96566954    -0.13000
F862        F  0.16326520  0.60827552  0.97885443    -0.15400
F863        F  0.27253219  0.60713612  0.55245616    -0.15400
F864        F  0.19760784  0.57147737  0.56690633    -0.13000
C865        C  0.80330997  0.15842584  0.00559937     0.81600
N866        N  0.82554255  0.20443325  0.00516637    -0.76700
C867        C  0.86571088  0.22772187  0.00353520     0.84100
N868        N  0.88326686  0.20454379  0.00222287    -0.76600
C869        C  0.86152002  0.15870484  0.00258921     0.84200
N870        N  0.82149563  0.13584769  0.00473280    -0.78400
C871        C  0.80892441  0.15952413  0.25339828     0.81600
N872        N  0.83245884  0.20649152  0.25573189    -0.76700
C873        C  0.87286161  0.23018230  0.25519371     0.84100
N874        N  0.88988839  0.20644684  0.25247432    -0.76600
C875        C  0.86731920  0.15964686  0.25029790     0.84200
N876        N  0.82676022  0.13632475  0.25087672    -0.78400
C877        C  0.72808727  0.38667315  0.08779348     0.81600
N878        N  0.71034128  0.40907132  0.08531328    -0.76700
C879        C  0.66999974  0.38710895  0.08590456     0.84100
N880        N  0.64733410  0.34229072  0.08864151    -0.76600
C881        C  0.66443939  0.31914576  0.09084809     0.84200
N882        N  0.70486125  0.34166985  0.09026289    -0.78400
C883        C  0.73297667  0.39093740  0.34045482     0.81600
N884        N  0.71504837  0.41391481  0.34252003    -0.76700
C885        C  0.67521873  0.39123539  0.34541406     0.84100
N886        N  0.65368550  0.34557389  0.34637144    -0.76600
C887        C  0.67106731  0.32214836  0.34457180     0.84200
N888        N  0.71069190  0.34509733  0.34126383    -0.78400
C889        C  0.64028011  0.07428245  0.03084762     0.77800
Tb890      Tb  0.96737794  0.02166700  0.04454411     1.80700
O891        O  0.63277635  0.07849362  0.05798073    -0.50200
O892        O  0.58478270  0.49722540  0.08159126    -0.57600
C893        C  0.55975630  0.11676657  0.06719998     0.93700
O894        O  0.96646385  0.08716048  0.04583484    -0.57100
Tb895      Tb  0.56163127  0.02393075  0.04488286     1.78100
O896        O  0.90202599  0.45874995  0.04487729    -0.57600
O897        O  0.50167495  0.45319553  0.04527488    -0.76500
O898        O  0.57197343  0.09654399  0.04919453    -0.75800
O899        O  0.51614024  0.99156341  0.49411787    -0.61000
C900        C  0.96715666  0.43090517  0.02785292     0.93300
O901        O  0.48513233  0.00397717  0.08741417    -0.73000
C902        C  0.89249561  0.97654274  0.06500528     0.76700
C903        C  0.59085716  0.47334908  0.06077284     0.77700
O904        O  0.60851372  0.04725512  0.01040680    -0.58200
O905        O  0.58109758  0.47348451  0.03373811    -0.50200
O906        O  0.49889970  0.03921294  0.00116514    -0.76200
O907        O  0.55242796  0.04581517  0.09505456    -0.60200
C908        C  0.51913230  0.02459660  0.10508479     0.91500
C909        C  0.50466389  0.01312927  0.48273794     0.92700
C910        C  0.93815789  0.06813569  0.02297045     0.77000
O911        O  0.92345021  0.01648747  0.07962495    -0.49600
O912        O  0.92698632  0.52720484  0.01115007    -0.50700
O913        O  0.95465995  0.45269960  0.01814762    -0.63600
O914        O  0.52505952  0.09357344  0.07500658    -0.64700
C915        C  0.64300046  0.06781315  0.27540565     0.77800
Tb916      Tb  0.97354877  0.02474910  0.29264990     1.80700
O917        O  0.63406520  0.08985621  0.29498713    -0.50200
O918        O  0.61251361  0.52307939  0.33299033    -0.57600
C919        C  0.56989175  0.11909947  0.31943404     0.93700
O920        O  0.97140780  0.08860256  0.29156373    -0.57100
Tb921      Tb  0.56863935  0.02539606  0.29699279     1.78100
O922        O  0.90475824  0.46232644  0.29057539    -0.57600
O923        O  0.51016688  0.45509950  0.26961195    -0.76500
O924        O  0.58204846  0.09576952  0.32711020    -0.75800
O925        O  0.55292641  0.04264107  0.25279134    -0.61000
C926        C  0.97754636  0.43374501  0.28036160     0.93300
O927        O  0.50263231  0.04422209  0.34420399    -0.73000
C928        C  0.89678577  0.98029729  0.31072669     0.76700
C929        C  0.59785160  0.48025111  0.32203648     0.77700
O930        O  0.61430373  0.02474693  0.26552212    -0.58200
O931        O  0.56782060  0.45984356  0.30033035    -0.50200
O932        O  0.48567207  0.00195263  0.24416323    -0.76200
O933        O  0.53818153  0.01392072  0.34134555    -0.60200
C934        C  0.51853473  0.02711225  0.35604791     0.91500
C935        C  0.51936679  0.02245573  0.23465682     0.92700
C936        C  0.94492353  0.06917925  0.26736473     0.77000
O937        O  0.92765361  0.01998744  0.32582320    -0.49600
O938        O  0.93369447  0.52749830  0.25737904    -0.50700
O939        O  0.96779394  0.45665714  0.29849009    -0.63600
O940        O  0.53599745  0.09934828  0.30173663    -0.64700
C941        C  0.54174002  0.51408601  0.40646940     0.25000
C942        C  0.51405029  0.02222987  0.38820922    -0.23100
C943        C  0.48975905  0.03269437  0.40444787     0.19900
C944        C  0.48599712  0.02872325  0.43479619     0.24900
C945        C  0.50609490  0.01378688  0.44972170    -0.23100
C946        C  0.53928457  0.51061778  0.43702891     0.19800
F947        F  0.06100997  0.49762530  0.45008341    -0.13000
F948        F  0.06573671  0.50421307  0.39147148    -0.15400
F949        F  0.46223768  0.03922298  0.44938760    -0.15400
F950        F  0.46921922  0.04659777  0.39107294    -0.13000
C951        C  0.55563228  0.05472831  0.19156690     0.25000
C952        C  0.51961388  0.02268424  0.20146683    -0.23100
C953        C  0.98391439  0.99037318  0.17915268     0.19900
C954        C  0.98384683  0.99084981  0.14798182     0.24900
C955        C  0.51956534  0.02370777  0.13818971    -0.23100
C956        C  0.55559494  0.05521291  0.16034032     0.19800
F957        F  0.59080636  0.08740259  0.15203495    -0.13000
F958        F  0.59093972  0.08646221  0.21213894    -0.15400
F959        F  0.94857793  0.95872614  0.12744579    -0.15400
F960        F  0.94885300  0.95763235  0.18733420    -0.13000
C961        C  0.60324414  0.24527618  0.34101668     0.25000
C962        C  0.64580126  0.27076523  0.34273860    -0.22300
C963        C  0.66335303  0.24579589  0.34080351     0.19900
C964        C  0.63887774  0.19672344  0.33510522     0.24900
C965        C  0.59625678  0.17122306  0.33051424    -0.23100
C966        C  0.57888112  0.19622243  0.33467134     0.19800
F967        F  0.53805849  0.17317602  0.33257436    -0.13000
F968        F  0.58461611  0.26733656  0.34466944    -0.15400
F969        F  0.65704895  0.17419517  0.33274856    -0.15400
F970        F  0.70422508  0.26847016  0.34369281    -0.13000
C971        C  0.78528341  0.38829092  0.31371146     0.25000
C972        C  0.77524342  0.41401731  0.33448460    -0.23100
C973        C  0.80567889  0.46178629  0.34883378     0.19900
C974        C  0.84545621  0.48323918  0.34277052     0.24900
C975        C  0.85539115  0.45754255  0.32172832    -0.23100
C976        C  0.82472213  0.40981827  0.30726446     0.19800
F977        F  0.83265106  0.38376323  0.28654651    -0.13000
F978        F  0.75646120  0.34253608  0.29859087    -0.15400
F979        F  0.87468239  0.02878790  0.35517912    -0.15400
F980        F  0.79705342  0.48761131  0.36904497    -0.13000
C981        C  0.67444838  0.46262925  0.35464633     0.25000
C982        C  0.65390771  0.41372211  0.34326845    -0.23100
C983        C  0.61323793  0.38651942  0.32772566     0.19900
C984        C  0.59437040  0.40798319  0.32221418     0.24900
C985        C  0.61566648  0.45713624  0.33202202    -0.23100
C986        C  0.65556699  0.48417203  0.34902511     0.19800
F987        F  0.67715076  0.53174894  0.35891937    -0.13000
F988        F  0.71301164  0.48972322  0.37091499    -0.15400
F989        F  0.55556904  0.38058301  0.30633951    -0.15400
F990        F  0.59227624  0.33925410  0.31609140    -0.13000
C991        C  0.57097738  0.19529643  0.08508578     0.25000
C992        C  0.58678238  0.16881863  0.07831255    -0.23100
C993        C  0.62904473  0.19275982  0.08012619     0.19900
C994        C  0.65453820  0.24165845  0.08601444     0.24900
C995        C  0.63840785  0.26815317  0.08998518    -0.23100
C996        C  0.59637353  0.24435224  0.09060758     0.19800
F997        F  0.57929151  0.26810470  0.09558106    -0.13000
F998        F  0.53064856  0.17376775  0.08498336    -0.15400
F999        F  0.69488744  0.26246825  0.08653378    -0.15400
F1000       F  0.64590814  0.16874401  0.07571050    -0.13000
C1001       C  0.82500063  0.40490846  0.06583417     0.25000
C1002       C  0.85314386  0.45405701  0.07625473    -0.23100
C1003       C  0.84204043  0.98007941  0.09441198     0.19900
C1004       C  0.80012982  0.45873390  0.09668195     0.24900
C1005       C  0.77157984  0.40967766  0.08526942    -0.23100
C1006       C  0.78470512  0.38294741  0.07029778     0.19800
F1007       F  0.75809343  0.33569427  0.05842599    -0.13000
F1008       F  0.83631056  0.37800923  0.05081401    -0.15400
F1009       F  0.79329516  0.98574288  0.11913599    -0.15400
F1010       F  0.87072660  0.02630795  0.10847248    -0.13000
C1011       C  0.65904673  0.43268928  0.05632755     0.25000
C1012       C  0.64999058  0.40971378  0.08018936    -0.23100
C1013       C  0.62054872  0.40689926  0.09742286     0.19900
C1014       C  0.60132963  0.42792891  0.09139040     0.24900
C1015       C  0.61012416  0.45033483  0.06724674    -0.23100
C1016       C  0.63898927  0.45236348  0.04970605     0.19800
F1017       F  0.64869828  0.47468499  0.02666910    -0.13000
F1018       F  0.68649687  0.43487663  0.03874488    -0.15400
F1019       F  0.57363956  0.42567219  0.10870536    -0.15400
F1020       F  0.61091489  0.38448238  0.12039662    -0.13000
C1021       C  0.86620405  0.08657153  0.24005825     0.25000
C1022       C  0.88798514  0.13591722  0.25040438    -0.23100
C1023       C  0.93002222  0.16276974  0.26235664     0.19900
C1024       C  0.94904203  0.14082419  0.26555360     0.24900
C1025       C  0.92672157  0.09162039  0.25718498    -0.23100
C1026       C  0.88547557  0.06463377  0.24334853     0.19800
F1027       F  0.86404951  0.51671885  0.23582891    -0.13000
F1028       F  0.82608160  0.05937358  0.22740692    -0.15400
F1029       F  0.98927592  0.16788966  0.27792235    -0.15400
F1030       F  0.95266505  0.21037833  0.27279042    -0.13000
C1031       C  0.96156531  0.35389821  0.25541175     0.25000
C1032       C  0.95057116  0.38146557  0.27282639    -0.23100
C1033       C  0.91336682  0.35841076  0.28374803     0.19900
C1034       C  0.88787295  0.30951105  0.27734429     0.24900
C1035       C  0.89887430  0.28198349  0.26012312    -0.23100
C1036       C  0.93601062  0.30474095  0.24917606     0.19800
F1037       F  0.94760615  0.27943844  0.23219682    -0.13000
F1038       F  0.99731431  0.37426979  0.24478515    -0.15400
F1039       F  0.85309452  0.28943081  0.28926328    -0.15400
F1040       F  0.90160558  0.38300123  0.30136623    -0.13000
C1041       C  0.73893652  0.08567085  0.25122101     0.25000
C1042       C  0.76498316  0.13499728  0.25602882    -0.23100
C1043       C  0.74877813  0.16099694  0.26467086     0.19900
C1044       C  0.70883561  0.13880794  0.26999018     0.24900
C1045       C  0.68363127  0.09004458  0.26641865    -0.23100
C1046       C  0.69875937  0.06351618  0.25634212     0.19800
F1047       F  0.67531168  0.01629568  0.25282846    -0.13000
F1048       F  0.75226692  0.05859582  0.24194436    -0.15400
F1049       F  0.69490382  0.16536362  0.27891031    -0.15400
F1050       F  0.77159808  0.20830184  0.26880423    -0.13000
C1051       C  0.94206564  0.14075185  0.02400403     0.25000
C1052       C  0.92054395  0.09166746  0.01362554    -0.23100
C1053       C  0.87757557  0.06596389  0.49282325     0.19900
C1054       C  0.85746608  0.08646583  0.48805518     0.24900
C1055       C  0.88254557  0.13586870  0.00431075    -0.23100
C1056       C  0.92326576  0.16258182  0.01960127     0.19800
F1057       F  0.94451373  0.20967563  0.03191340    -0.13000
F1058       F  0.98121396  0.16779834  0.03904328    -0.15400
F1059       F  0.82294691  0.06174746  0.46649449    -0.15400
F1060       F  0.85353788  0.51335003  0.49222338    -0.13000
C1061       C  0.87719938  0.30220455  0.99598068     0.25000
C1062       C  0.89168254  0.27927768  0.00772791    -0.23100
C1063       C  0.93134726  0.30639135  0.02492270     0.19900
C1064       C  0.95580365  0.35511275  0.03072399     0.24900
C1065       C  0.94132684  0.37859776  0.01962928    -0.23100
C1066       C  0.90184966  0.35141304  0.00170768     0.19800
F1067       F  0.88683787  0.37222828  0.98987223    -0.13000
F1068       F  0.82846496  0.27837788  0.49068755    -0.15400
F1069       F  0.99358262  0.37905791  0.04789299    -0.15400
F1070       F  0.94622018  0.28610195  0.03761275    -0.13000
C1071       C  0.69091358  0.10604581  0.99524058     0.25000
C1072       C  0.68196292  0.09614769  0.02407105    -0.23100
C1073       C  0.71291997  0.10509663  0.04610698     0.19900
C1074       C  0.75210062  0.12408152  0.03959081     0.24900
C1075       C  0.76124891  0.13526374  0.01120812    -0.23100
C1076       C  0.72268282  0.12957196  0.48843963     0.19800
F1077       F  0.73158020  0.14542882  0.46255813    -0.13000
F1078       F  0.65488751  0.10626101  0.47572427    -0.15400
F1079       F  0.78140471  0.13245861  0.06128621    -0.15400
F1080       F  0.70501525  0.09428176  0.07368771    -0.13000
C1081       C  0.79433474  0.15485330  0.50213808     0.81600
N1082       N  0.81738074  0.20101212  0.50184661    -0.76700
C1083       C  0.85784009  0.22395883  0.50112928     0.84100
N1084       N  0.87466574  0.20017276  0.50084467    -0.76600
C1085       C  0.85224689  0.15442658  0.50121645     0.84200
N1086       N  0.81203012  0.13183020  0.50220613    -0.78400
C1087       C  0.80908828  0.17024002  0.75128588     0.81600
N1088       N  0.83272113  0.21703595  0.75308601    -0.76700
C1089       C  0.87324494  0.24058221  0.75315544     0.84100
N1090       N  0.89034672  0.21695735  0.75169107    -0.76600
C1091       C  0.86759450  0.17030538  0.75017796     0.84200
N1092       N  0.82690992  0.14710960  0.75006288    -0.78400
C1093       C  0.72813814  0.38567607  0.58760946     0.81600
N1094       N  0.71086783  0.40869799  0.58551763    -0.76700
C1095       C  0.67040419  0.38668549  0.58515538     0.84100
N1096       N  0.64689129  0.34109909  0.58622386    -0.76600
C1097       C  0.66350109  0.31730143  0.58787160     0.84200
N1098       N  0.70413733  0.33995213  0.58853338    -0.78400
C1099       C  0.73908385  0.40076247  0.84328347     0.81600
N1100       N  0.72090489  0.42316795  0.84277330    -0.76700
C1101       C  0.68056993  0.40029825  0.84382223     0.84100
N1102       N  0.65869006  0.35493299  0.84539877    -0.76600
C1103       C  0.67629138  0.33205671  0.84613648     0.84200
N1104       N  0.71651284  0.35525032  0.84479686    -0.78400
C1105       C  0.63229935  0.07070911  0.52943396     0.77800
Tb1106     Tb  0.96233194  0.02157872  0.54344803     1.80700
O1107       O  0.62527082  0.07046274  0.55671196    -0.50200
O1108       O  0.58384015  0.49540099  0.58194297    -0.57600
C1109       C  0.55574163  0.11460742  0.56381102     0.93700
O1110       O  0.95894582  0.08564066  0.54688895    -0.57100
Tb1111     Tb  0.55410842  0.01949692  0.54369627     1.78100
O1112       O  0.90257088  0.45606720  0.54821408    -0.57600
O1113       O  0.49808707  0.44800262  0.54291591    -0.76500
O1114       O  0.56628556  0.09248179  0.54578184    -0.75800
O1115       O  0.52577959  0.99939757  0.99473517    -0.61000
C1116       C  0.96392447  0.42744029  0.52560018     0.93300
O1117       O  0.48346523  0.01558293  0.59060307    -0.73000
C1118       C  0.88686689  0.97388226  0.56276958     0.76700
C1119       C  0.58973983  0.47117144  0.56132453     0.77700
O1120       O  0.60037018  0.04761805  0.50920127    -0.58200
O1121       O  0.57864960  0.46956510  0.53414446    -0.50200
O1122       O  0.49283053  0.03518211  0.49926220    -0.76200
O1123       O  0.54930712  0.04475533  0.59472490    -0.60200
C1124       C  0.51745689  0.03138310  0.60650512     0.91500
C1125       C  0.51256233  0.01994065  0.98412533     0.92700
C1126       C  0.93242122  0.06815417  0.52304166     0.77000
O1127       O  0.91480908  0.01677479  0.57431730    -0.49600
O1128       O  0.92024137  0.52203194  0.51413888    -0.50700
O1129       O  0.95254982  0.45062267  0.51653081    -0.63600
O1130       O  0.52155189  0.09308329  0.57244709    -0.64700
C1131       C  0.64404385  0.07893540  0.77467213     0.77800
Tb1132     Tb  0.97697924  0.03733869  0.79647236     1.80700
O1133       O  0.63565038  0.09984855  0.79570467    -0.50200
O1134       O  0.61511183  0.53084687  0.83506216    -0.57600
C1135       C  0.57402717  0.12924623  0.81999543     0.93700
O1136       O  0.97049718  0.09918423  0.79895293    -0.57100
Tb1137     Tb  0.57012949  0.03441295  0.79670994     1.78100
O1138       O  0.91101664  0.47474689  0.79450569    -0.57600
O1139       O  0.51260480  0.46573598  0.77189834    -0.76500
O1140       O  0.58569371  0.10541684  0.82749389    -0.75800
O1141       O  0.55323159  0.05132139  0.75308031    -0.61000
C1142       C  0.97977088  0.44446258  0.78247361     0.93300
O1143       O  0.50988331  0.05752399  0.84696021    -0.73000
C1144       C  0.90223470  0.99195289  0.81696057     0.76700
C1145       C  0.60213672  0.48905430  0.82216834     0.77700
O1146       O  0.61509220  0.03624697  0.76371624    -0.58200
O1147       O  0.57312877  0.46976252  0.79982103    -0.50200
O1148       O  0.48627256  0.01567810  0.74628880    -0.76200
O1149       O  0.54012109  0.02097082  0.84122641    -0.60200
C1150       C  0.52376520  0.03751306  0.85754994     0.91500
C1151       C  0.51948165  0.03347836  0.73602242     0.92700
C1152       C  0.94484629  0.08096979  0.77436170     0.77000
O1153       O  0.93277844  0.03264889  0.83099117    -0.49600
O1154       O  0.94237240  0.54648463  0.76357227    -0.50700
O1155       O  0.97005987  0.46732437  0.80074310    -0.63600
O1156       O  0.54019606  0.10986082  0.80230865    -0.64700
C1157       C  0.54108820  0.51621679  0.90705115     0.25000
C1158       C  0.52066557  0.03288075  0.88992640    -0.23100
C1159       C  0.50043244  0.04777355  0.90824570     0.19900
C1160       C  0.49702624  0.04264831  0.93844247     0.24900
C1161       C  0.51386214  0.02260279  0.95131759    -0.23100
C1162       C  0.53752043  0.51124189  0.93721527     0.19800
F1163       F  0.05483169  0.49241359  0.94866585    -0.13000
F1164       F  0.06201316  0.50235691  0.89094314    -0.15400
F1165       F  0.47699481  0.05736384  0.95492431    -0.15400
F1166       F  0.48369253  0.06736766  0.89711006    -0.13000
C1167       C  0.54660417  0.02872612  0.68706899     0.25000
C1168       C  0.51927589  0.03352860  0.70303047    -0.23100
C1169       C  0.99223039  0.03884676  0.68728119     0.19900
C1170       C  0.99207510  0.03881049  0.65604426     0.24900
C1171       C  0.51939517  0.03406215  0.63999672    -0.23100
C1172       C  0.54686755  0.02931890  0.65591570     0.19800
F1173       F  0.57299936  0.02347973  0.64110323    -0.13000
F1174       F  0.57218666  0.02181899  0.70131535    -0.15400
F1175       F  0.96562852  0.04442638  0.64168645    -0.15400
F1176       F  0.96655421  0.04535002  0.70227602    -0.13000
C1177       C  0.60812810  0.25552430  0.84190711     0.25000
C1178       C  0.65076547  0.28081649  0.84453003    -0.22300
C1179       C  0.66809911  0.25567046  0.84330359     0.19900
C1180       C  0.64333274  0.20652026  0.83687167     0.24900
C1181       C  0.60071277  0.18128857  0.83133938    -0.23100
C1182       C  0.58356529  0.20650392  0.83528060     0.19800
F1183       F  0.54274333  0.18366321  0.83273689    -0.13000
F1184       F  0.58963505  0.27775563  0.84495983    -0.15400
F1185       F  0.66128541  0.18376290  0.83483399    -0.15400
F1186       F  0.70903066  0.27823849  0.84750161    -0.13000
C1187       C  0.79347124  0.39736901  0.82089198     0.25000
C1188       C  0.78191550  0.42385982  0.83885463    -0.23100
C1189       C  0.81116003  0.47258977  0.85111697     0.19900
C1190       C  0.85111352  0.49427604  0.84556836     0.24900
C1191       C  0.86226034  0.46789258  0.82686811    -0.23100
C1192       C  0.83292381  0.41925469  0.81453264     0.19800
F1193       F  0.84209900  0.39269401  0.79585479    -0.13000
F1194       F  0.76604984  0.35042462  0.80814981    -0.15400
F1195       F  0.87596650  0.04411651  0.85092348    -0.15400
F1196       F  0.80113130  0.49929860  0.86850770    -0.13000
C1197       C  0.68030682  0.47182447  0.85164902     0.25000
C1198       C  0.65965234  0.42288066  0.84043460    -0.23100
C1199       C  0.61895084  0.39564031  0.82494624     0.19900
C1200       C  0.59975930  0.41701490  0.82016477     0.24900
C1201       C  0.62074206  0.46605727  0.83069893    -0.23100
C1202       C  0.66102085  0.49320423  0.84692029     0.19800
F1203       F  0.68246461  0.54073877  0.85705506    -0.13000
F1204       F  0.71928538  0.49910815  0.86712148    -0.15400
F1205       F  0.56076248  0.38964936  0.80467146    -0.15400
F1206       F  0.59813380  0.34843845  0.81301057    -0.13000
C1207       C  0.56976963  0.19441628  0.58366858     0.25000
C1208       C  0.58391918  0.16671480  0.57393570    -0.23100
C1209       C  0.62543537  0.18944174  0.57237094     0.19900
C1210       C  0.65148087  0.23822988  0.57797370     0.24900
C1211       C  0.63690726  0.26599194  0.58572189    -0.23100
C1212       C  0.59592583  0.24347726  0.58947085     0.19800
F1213       F  0.58073790  0.26868666  0.59833093    -0.13000
F1214       F  0.53031626  0.17413837  0.58661987    -0.15400
F1215       F  0.69068624  0.25770065  0.57456099    -0.15400
F1216       F  0.64111524  0.16444754  0.56510669    -0.13000
C1217       C  0.82722938  0.40465889  0.57124507     0.25000
C1218       C  0.85403658  0.45396739  0.57881212    -0.23100
C1219       C  0.83265958  0.97669914  0.58611570     0.19900
C1220       C  0.79969156  0.45859330  0.59590223     0.24900
C1221       C  0.77208121  0.40914141  0.58658140    -0.23100
C1222       C  0.78671338  0.38246084  0.57497453     0.19800
F1223       F  0.76145325  0.33481521  0.56547385    -0.13000
F1224       F  0.83996168  0.37772627  0.55945806    -0.15400
F1225       F  0.78047193  0.98133869  0.60474759    -0.15400
F1226       F  0.85887483  0.02420125  0.59692187    -0.13000
C1227       C  0.65799148  0.43080650  0.55540211     0.25000
C1228       C  0.65123093  0.41032922  0.58037163    -0.23100
C1229       C  0.62439938  0.41037023  0.59949479     0.19900
C1230       C  0.60456822  0.43076193  0.59369494     0.24900
C1231       C  0.61036559  0.44984210  0.56807326    -0.23100
C1232       C  0.63744764  0.45003825  0.54913684     0.19800
F1233       F  0.64467190  0.46975514  0.52487291    -0.13000
F1234       F  0.68335001  0.43061091  0.53635142    -0.15400
F1235       F  0.57896911  0.43075312  0.61255107    -0.15400
F1236       F  0.61774344  0.39104910  0.62390349    -0.13000
C1237       C  0.86752271  0.09800663  0.74189299     0.25000
C1238       C  0.88821390  0.14708236  0.75306454    -0.23100
C1239       C  0.92875059  0.17408593  0.76888747     0.19900
C1240       C  0.94723559  0.15247613  0.77488542     0.24900
C1241       C  0.92630054  0.10347274  0.76458656    -0.23100
C1242       C  0.88663039  0.07647581  0.74722838     0.19800
F1243       F  0.87205305  0.53264201  0.73958976    -0.13000
F1244       F  0.82871646  0.07076908  0.72607112    -0.15400
F1245       F  0.98570209  0.17976619  0.79130743    -0.15400
F1246       F  0.95022693  0.22149357  0.78010258    -0.13000
C1247       C  0.96149601  0.36466739  0.75393334     0.25000
C1248       C  0.95236175  0.39208607  0.77411922    -0.23100
C1249       C  0.91659857  0.36873667  0.78680324     0.19900
C1250       C  0.89029907  0.31973809  0.77897620     0.24900
C1251       C  0.89945189  0.29245161  0.75893616    -0.23100
C1252       C  0.93544107  0.31540808  0.74662624     0.19800
F1253       F  0.94540597  0.29014440  0.72738242    -0.13000
F1254       F  0.99592311  0.38526872  0.74158043    -0.15400
F1255       F  0.85689905  0.29912568  0.79250674    -0.15400
F1256       F  0.90745935  0.39309752  0.80782148    -0.13000
C1257       C  0.73854101  0.09668839  0.74765709     0.25000
C1258       C  0.76528941  0.14616570  0.75404629    -0.23100
C1259       C  0.75005084  0.17267457  0.76465778     0.19900
C1260       C  0.71030515  0.15063545  0.77042890     0.24900
C1261       C  0.68437041  0.10156783  0.76520475    -0.23100
C1262       C  0.69847126  0.07468396  0.75293667     0.19800
F1263       F  0.67407540  0.02708801  0.74737124    -0.13000
F1264       F  0.75111345  0.06932077  0.73667877    -0.15400
F1265       F  0.69731319  0.17758225  0.78139156    -0.15400
F1266       F  0.77378356  0.22028158  0.77056238    -0.13000
C1267       C  0.92965786  0.13750957  0.53151112     0.25000
C1268       C  0.91362513  0.09113595  0.51494675    -0.23100
C1269       C  0.88070109  0.06514427  0.99671916     0.19900
C1270       C  0.86189983  0.08709402  0.99206210     0.24900
C1271       C  0.87317249  0.13234946  0.50522031    -0.23100
C1272       C  0.90957956  0.15776211  0.52678273     0.19800
F1273       F  0.92494828  0.20172371  0.54438377    -0.13000
F1274       F  0.96443449  0.16321754  0.55288356    -0.15400
F1275       F  0.82338505  0.06056071  0.97579307    -0.15400
F1276       F  0.85769611  0.51562707  0.98817899    -0.13000
C1277       C  0.86893640  0.30096756  0.50022124     0.25000
C1278       C  0.88484221  0.27565690  0.50458040    -0.23100
C1279       C  0.92734132  0.30078099  0.51365473     0.19900
C1280       C  0.95277736  0.34959073  0.51942016     0.24900
C1281       C  0.93678674  0.37514052  0.51634367    -0.23100
C1282       C  0.89464008  0.35009851  0.50581551     0.19800
F1283       F  0.87791012  0.37303978  0.50163686    -0.13000
F1284       F  0.83936196  0.27699924  0.97871073    -0.15400
F1285       F  0.99334033  0.37173950  0.52822428    -0.15400
F1286       F  0.94481456  0.27865834  0.51803794    -0.13000
C1287       C  0.68330789  0.10933592  0.49517416     0.25000
C1288       C  0.67366826  0.09313240  0.52208577    -0.23100
C1289       C  0.70362939  0.09635932  0.54160930     0.19900
C1290       C  0.74238409  0.11523921  0.53440618     0.24900
C1291       C  0.75239081  0.13245371  0.50800328    -0.23100
C1292       C  0.73046358  0.12607431  0.98904483     0.19800
F1293       F  0.73864411  0.13589299  0.96125717    -0.13000
F1294       F  0.66158700  0.09702919  0.97327430    -0.15400
F1295       F  0.77058043  0.11775585  0.55373379    -0.15400
F1296       F  0.69513317  0.08007834  0.56736441    -0.13000
C1297       C  0.80245669  0.65796067  0.00573812     0.81600
N1298       N  0.82491720  0.70318446  0.00369937    -0.76700
C1299       C  0.86476290  0.72534120  0.00129837     0.84100
N1300       N  0.88173420  0.70162397  0.00084963    -0.76600
C1301       C  0.85975945  0.65651561  0.00288113     0.84200
N1302       N  0.82008060  0.63487440  0.00574901    -0.78400
C1303       C  0.80987029  0.65899648  0.25478725     0.81600
N1304       N  0.83300978  0.70571334  0.25635296    -0.76700
C1305       C  0.87313578  0.72931679  0.25484368     0.84100
N1306       N  0.89027625  0.70568636  0.25184212    -0.76600
C1307       C  0.86800326  0.65904131  0.25027319     0.84200
N1308       N  0.82766455  0.63577505  0.25185316    -0.78400
C1309       C  0.72888635  0.88988341  0.08949741     0.81600
N1310       N  0.71153728  0.91287510  0.08799521    -0.76700
C1311       C  0.67140012  0.89128081  0.08923482     0.84100
N1312       N  0.64853056  0.84622297  0.09167957    -0.76600
C1313       C  0.66545083  0.82260773  0.09303453     0.84200
N1314       N  0.70561558  0.84480762  0.09167964    -0.78400
C1315       C  0.73362084  0.89098726  0.33830056     0.81600
N1316       N  0.71598220  0.91429128  0.34036167    -0.76700
C1317       C  0.67631038  0.89206474  0.34359842     0.84100
N1318       N  0.65468121  0.84658188  0.34493940    -0.76600
C1319       C  0.67176792  0.82284824  0.34310786     0.84200
N1320       N  0.71122573  0.84529238  0.33941786    -0.78400
C1321       C  0.64130162  0.57726657  0.03390915     0.77800
Tb1322     Tb  0.96883279  0.52404242  0.04715340     1.80700
O1323       O  0.63414836  0.57791819  0.06118670    -0.50200
O1324       O  0.58320066  0.99773972  0.08044541    -0.57600
C1325       C  0.56210454  0.61968241  0.07017726     0.93700
O1326       O  0.96398324  0.58668605  0.04888680    -0.57100
Tb1327     Tb  0.56299001  0.52565655  0.04805356     1.78100
O1328       O  0.89929714  0.95866717  0.04094974    -0.57600
O1329       O  0.50089095  0.95018079  0.04059282    -0.76500
O1330       O  0.57523007  0.59937672  0.05347173    -0.75800
O1331       O  0.52596312  0.49741188  0.49747460    -0.61000
C1332       C  0.96600058  0.92817833  0.02391999     0.93300
O1333       O  0.48670391  0.50755825  0.09068934    -0.73000
C1334       C  0.89398934  0.47754853  0.06761774     0.76700
C1335       C  0.59064856  0.97420777  0.06061582     0.77700
O1336       O  0.60939854  0.55320573  0.01357314    -0.58200
O1337       O  0.58135196  0.97309236  0.03309855    -0.50200
O1338       O  0.50248140  0.54346454  0.00503180    -0.76200
O1339       O  0.55395834  0.54790640  0.09819910    -0.60200
C1340       C  0.52058269  0.52721597  0.10818823     0.91500
C1341       C  0.51361362  0.51860599  0.48671886     0.92700
C1342       C  0.93733276  0.56770730  0.02485452     0.77000
O1343       O  0.92372969  0.51906677  0.08099528    -0.49600
O1344       O  0.92517958  0.02632768  0.01012661    -0.50700
O1345       O  0.95282840  0.95010143  0.01546869    -0.63600
O1346       O  0.52695522  0.59653139  0.07734636    -0.64700
C1347       C  0.64428037  0.56880213  0.27762660     0.77800
Tb1348     Tb  0.97368107  0.52494954  0.29564130     1.80700
O1349       O  0.63622285  0.58968676  0.29893721    -0.50200
O1350       O  0.61348780  0.02394416  0.33110808    -0.57600
C1351       C  0.57012225  0.62013496  0.32080414     0.93700
O1352       O  0.97200458  0.58894112  0.29363110    -0.57100
Tb1353     Tb  0.56937310  0.52633785  0.29856104     1.78100
O1354       O  0.90443694  0.96253137  0.28715433    -0.57600
O1355       O  0.50958303  0.95417159  0.26771684    -0.76500
O1356       O  0.58306032  0.59727088  0.32798754    -0.75800
O1357       O  0.55297203  0.54510568  0.25560667    -0.61000
C1358       C  0.97658473  0.93271264  0.27793675     0.93300
O1359       O  0.50372771  0.54487525  0.34700597    -0.73000
C1360       C  0.89676337  0.48052581  0.31366737     0.76700
C1361       C  0.59825535  0.98077083  0.32120079     0.77700
O1362       O  0.61435654  0.52684212  0.26561771    -0.58200
O1363       O  0.56718298  0.95950038  0.30035089    -0.50200
O1364       O  0.48563957  0.50227596  0.24673512    -0.76200
O1365       O  0.54097386  0.51662409  0.34381669    -0.60200
C1366       C  0.52166130  0.52990910  0.35894450     0.91500
C1367       C  0.51935271  0.52374435  0.23730743     0.92700
C1368       C  0.94523280  0.56903516  0.26955101     0.77000
O1369       O  0.92745154  0.52060564  0.32845503    -0.49600
O1370       O  0.93395440  0.02807625  0.25451798    -0.50700
O1371       O  0.96607423  0.95555336  0.29518078    -0.63600
O1372       O  0.53539668  0.59989179  0.30423859    -0.64700
C1373       C  0.53301634  0.00571013  0.40282329     0.25000
C1374       C  0.51998995  0.52750054  0.39178560    -0.23100
C1375       C  0.49560074  0.53706795  0.40862221     0.19900
C1376       C  0.49354045  0.53410329  0.43928240     0.24900
C1377       C  0.51539999  0.52094490  0.45395294    -0.23100
C1378       C  0.52885890  0.00126603  0.43306269     0.19800
F1379       F  0.04741389  0.98466374  0.44591606    -0.13000
F1380       F  0.05546810  0.99319911  0.38790351    -0.15400
F1381       F  0.46928687  0.54327050  0.45431971    -0.15400
F1382       F  0.47293619  0.54856763  0.39540404    -0.13000
C1383       C  0.55591203  0.55664618  0.19459683     0.25000
C1384       C  0.51978688  0.52409662  0.20417056    -0.23100
C1385       C  0.98396989  0.49196809  0.18168569     0.19900
C1386       C  0.98430049  0.49283602  0.15058485     0.24900
C1387       C  0.52061743  0.52574812  0.14110541    -0.23100
C1388       C  0.55628771  0.55746107  0.16348083     0.19800
F1389       F  0.59152070  0.59020322  0.15549553    -0.13000
F1390       F  0.59098723  0.58851004  0.21537537    -0.15400
F1391       F  0.94919676  0.46097619  0.12980676    -0.15400
F1392       F  0.94871792  0.45913144  0.18960923    -0.13000
C1393       C  0.60384245  0.74652890  0.34022385     0.25000
C1394       C  0.64636320  0.77170664  0.34187849    -0.22300
C1395       C  0.66377577  0.74667112  0.34066524     0.19900
C1396       C  0.63918180  0.69774109  0.33578079     0.24900
C1397       C  0.59656968  0.67236899  0.33114309    -0.23100
C1398       C  0.57935078  0.69756923  0.33459596     0.19800
F1399       F  0.53858550  0.67487341  0.33261006    -0.13000
F1400       F  0.58537316  0.76878500  0.34330621    -0.15400
F1401       F  0.65724186  0.67518022  0.33449845    -0.15400
F1402       F  0.70463381  0.76914995  0.34362464    -0.13000
C1403       C  0.78559912  0.88799929  0.31126781     0.25000
C1404       C  0.77578513  0.91372962  0.33228753    -0.23100
C1405       C  0.80636860  0.96130720  0.34691309     0.19900
C1406       C  0.84601612  0.98276403  0.34063678     0.24900
C1407       C  0.85562570  0.95724445  0.31907933    -0.23100
C1408       C  0.82490191  0.90958457  0.30453872     0.19800
F1409       F  0.83269298  0.88366697  0.28353800    -0.13000
F1410       F  0.75672614  0.84221285  0.29625047    -0.15400
F1411       F  0.87394277  0.52944009  0.35699459    -0.15400
F1412       F  0.79800136  0.98688877  0.36764857    -0.13000
C1413       C  0.67583745  0.96372018  0.35275453     0.25000
C1414       C  0.65516767  0.91475601  0.34157357    -0.23100
C1415       C  0.61429406  0.88748529  0.32652613     0.19900
C1416       C  0.59521133  0.90883100  0.32142789     0.24900
C1417       C  0.61648347  0.95799751  0.33110915    -0.23100
C1418       C  0.65669261  0.98517636  0.34758718     0.19800
F1419       F  0.67823096  0.03274684  0.35747166    -0.13000
F1420       F  0.71473560  0.99092084  0.36839545    -0.15400
F1421       F  0.55620017  0.88124522  0.30596221    -0.15400
F1422       F  0.59328264  0.84020866  0.31491930    -0.13000
C1423       C  0.57255092  0.69800459  0.08707616     0.25000
C1424       C  0.58881689  0.67194773  0.08069231    -0.23100
C1425       C  0.63116881  0.69649266  0.08248543     0.19900
C1426       C  0.65623303  0.74544628  0.08834810     0.24900
C1427       C  0.63959617  0.77145691  0.09197643    -0.23100
C1428       C  0.59748706  0.74708041  0.09231876     0.19800
F1429       F  0.57991634  0.77030643  0.09689556    -0.13000
F1430       F  0.53218008  0.67597355  0.08698179    -0.15400
F1431       F  0.69676481  0.76685274  0.08944857    -0.15400
F1432       F  0.64860977  0.67308926  0.07820512    -0.13000
C1433       C  0.82130273  0.90584487  0.05997459     0.25000
C1434       C  0.85182592  0.95373337  0.07391374    -0.23100
C1435       C  0.84061207  0.48065431  0.09249633     0.19900
C1436       C  0.80209167  0.95931378  0.09976617     0.24900
C1437       C  0.77151033  0.91168892  0.08524953    -0.23100
C1438       C  0.78161616  0.88508623  0.06556558     0.19800
F1439       F  0.75257794  0.83943006  0.05040220    -0.13000
F1440       F  0.82965453  0.87904361  0.04049669    -0.15400
F1441       F  0.78883208  0.48561874  0.11172965    -0.15400
F1442       F  0.86703819  0.52815377  0.10318446    -0.13000
C1443       C  0.65948903  0.93458066  0.05820383     0.25000
C1444       C  0.65161179  0.91398870  0.08322274    -0.23100
C1445       C  0.62348378  0.91342959  0.10111165     0.19900
C1446       C  0.60367351  0.93342712  0.09408734     0.24900
C1447       C  0.61092381  0.95291854  0.06855727    -0.23100
C1448       C  0.63911923  0.95351349  0.05079841     0.19800
F1449       F  0.64768661  0.97343300  0.02658600    -0.13000
F1450       F  0.68599005  0.93498915  0.04019794    -0.15400
F1451       F  0.57677872  0.93277321  0.11171203    -0.15400
F1452       F  0.61568574  0.89417068  0.12559289    -0.13000
C1453       C  0.86715195  0.58626607  0.24041669     0.25000
C1454       C  0.88889828  0.63560335  0.25042330    -0.23100
C1455       C  0.93093982  0.66259808  0.26239306     0.19900
C1456       C  0.94979158  0.64071609  0.26654007     0.24900
C1457       C  0.92737780  0.59147605  0.25868275    -0.23100
C1458       C  0.88633619  0.56442262  0.24429911     0.19800
F1459       F  0.86312773  0.01691679  0.23488623    -0.13000
F1460       F  0.82710530  0.55900197  0.22753055    -0.15400
F1461       F  0.98991103  0.66789363  0.27925801    -0.15400
F1462       F  0.95369855  0.71030259  0.27193912    -0.13000
C1463       C  0.96049937  0.85273930  0.25311090     0.25000
C1464       C  0.94983654  0.88044316  0.27083794    -0.23100
C1465       C  0.91317710  0.85754233  0.28250524     0.19900
C1466       C  0.88804548  0.80871235  0.27666211     0.24900
C1467       C  0.89879506  0.78104057  0.25923159    -0.23100
C1468       C  0.93530095  0.80362839  0.24745689     0.19800
F1469       F  0.94658627  0.77819105  0.23020428    -0.13000
F1470       F  0.99549169  0.87294047  0.24145880    -0.15400
F1471       F  0.85390383  0.78892591  0.28934314    -0.15400
F1472       F  0.90160306  0.88221160  0.30032348    -0.13000
C1473       C  0.73801584  0.58582363  0.24841547     0.25000
C1474       C  0.76655552  0.63511582  0.25879134    -0.23100
C1475       C  0.75340585  0.66189429  0.27378051     0.19900
C1476       C  0.71349693  0.64024398  0.27881095     0.24900
C1477       C  0.68524126  0.59113876  0.26907768    -0.23100
C1478       C  0.69769669  0.56408867  0.25335349     0.19800
F1479       F  0.67129317  0.51649764  0.24361383    -0.13000
F1480       F  0.74898011  0.55853021  0.23348312    -0.15400
F1481       F  0.70273482  0.66779297  0.29360916    -0.15400
F1482       F  0.77941525  0.70930275  0.28479907    -0.13000
C1483       C  0.94015353  0.63920279  0.02544833     0.25000
C1484       C  0.91898271  0.59020367  0.01516690    -0.23100
C1485       C  0.87619264  0.56108910  0.50014622     0.19900
C1486       C  0.85732566  0.58299100  0.49546056     0.24900
C1487       C  0.88039670  0.63354603  0.00556924    -0.23100
C1488       C  0.92097693  0.66056194  0.02111656     0.19800
F1489       F  0.94163843  0.70748308  0.03386569    -0.13000
F1490       F  0.97939931  0.66661071  0.04034173    -0.15400
F1491       F  0.81754425  0.55568954  0.48182851    -0.15400
F1492       F  0.86111261  0.02110189  0.47645256    -0.13000
C1493       C  0.87435672  0.79988550  0.99615714     0.25000
C1494       C  0.89094291  0.77655251  0.00368894    -0.23100
C1495       C  0.93279294  0.80335173  0.01575888     0.19900
C1496       C  0.95701971  0.85207503  0.02139525     0.24900
C1497       C  0.94030260  0.87586900  0.01509882    -0.23100
C1498       C  0.89877778  0.84900895  0.00170489     0.19800
F1499       F  0.88134740  0.87011290  0.99466834    -0.13000
F1500       F  0.83884427  0.77107367  0.47286215    -0.15400
F1501       F  0.99693520  0.87578253  0.03376442    -0.15400
F1502       F  0.95048564  0.78299621  0.02370349    -0.13000
C1503       C  0.69184197  0.61284191  0.99880462     0.25000
C1504       C  0.68272393  0.59942158  0.02667409    -0.23100
C1505       C  0.71316933  0.60479226  0.04715369     0.19900
C1506       C  0.75178032  0.62274533  0.03981023     0.24900
C1507       C  0.76096767  0.63658920  0.01221097    -0.23100
C1508       C  0.72935579  0.63449528  0.49362806     0.19800
F1509       F  0.73986486  0.65583723  0.47012044    -0.13000
F1510       F  0.66364463  0.61814272  0.48383252    -0.15400
F1511       F  0.78060975  0.62775507  0.06008842    -0.15400
F1512       F  0.70527357  0.59141352  0.07396471    -0.13000
C1513       C  0.79942097  0.65453378  0.50497747     0.81600
N1514       N  0.82157625  0.70052852  0.50474884    -0.76700
C1515       C  0.86195420  0.72438076  0.50411229     0.84100
N1516       N  0.88005195  0.70180446  0.50353220    -0.76600
C1517       C  0.85825796  0.65562324  0.50331611     0.84200
N1518       N  0.81793668  0.63234927  0.50455453    -0.78400
C1519       C  0.81171235  0.67007369  0.75554235     0.81600
N1520       N  0.83451126  0.71635148  0.75594985    -0.76700
C1521       C  0.87490597  0.74028482  0.75546703     0.84100
N1522       N  0.89281694  0.71763503  0.75484446    -0.76600
C1523       C  0.87077360  0.67144095  0.75454994     0.84200
N1524       N  0.83019367  0.64779640  0.75500840    -0.78400
C1525       C  0.72054912  0.88254395  0.58101201     0.81600
N1526       N  0.70167722  0.90322419  0.57680340    -0.76700
C1527       C  0.66142092  0.88063774  0.57793486     0.84100
N1528       N  0.63998759  0.83703789  0.58285948    -0.76600
C1529       C  0.65842328  0.81577487  0.58675556     0.84200
N1530       N  0.69869652  0.83890962  0.58572640    -0.78400
C1531       C  0.73868352  0.90241606  0.84259827     0.81600
N1532       N  0.71997847  0.92391419  0.84047757    -0.76700
C1533       C  0.67938684  0.90042565  0.84053907     0.84100
N1534       N  0.65765572  0.85528647  0.84265492    -0.76600
C1535       C  0.67589308  0.83344156  0.84518142     0.84200
N1536       N  0.71637949  0.85730776  0.84489391    -0.78400
C1537       C  0.63826474  0.57318052  0.53332005     0.77800
Tb1538     Tb  0.96732126  0.52162502  0.54657183     1.80700
O1539       O  0.63149363  0.57264698  0.56060099    -0.50200
O1540       O  0.57930657  0.99246139  0.57522005    -0.57600
C1541       C  0.55912985  0.61531858  0.57085685     0.93700
O1542       O  0.96808757  0.58705431  0.54317752    -0.57100
Tb1543     Tb  0.56021086  0.52139599  0.54788603     1.78100
O1544       O  0.89710170  0.95411498  0.54257563    -0.57600
O1545       O  0.49285826  0.95148775  0.54778760    -0.76500
O1546       O  0.57215726  0.59507527  0.55394566    -0.75800
O1547       O  0.52663211  0.50082133  0.99823391    -0.61000
C1548       C  0.95914384  0.92754036  0.52912203     0.93300
O1549       O  0.48474549  0.50690405  0.59135640    -0.73000
C1550       C  0.89427451  0.47696361  0.56935468     0.76700
C1551       C  0.58052573  0.96486768  0.55360361     0.77700
O1552       O  0.60623245  0.55062566  0.51329311    -0.58200
O1553       O  0.56678295  0.96262678  0.52704483    -0.50200
O1554       O  0.49989727  0.53819014  0.50345077    -0.76200
O1555       O  0.55168044  0.54262252  0.59828825    -0.60200
C1556       C  0.51853137  0.52512249  0.60856773     0.91500
C1557       C  0.51503343  0.52293639  0.98783230     0.92700
C1558       C  0.93596363  0.56537818  0.52344524     0.77000
O1559       O  0.92289138  0.51993861  0.57995492    -0.49600
O1560       O  0.92210022  0.02810365  0.50823042    -0.50700
O1561       O  0.94690269  0.94817063  0.51736471    -0.63600
O1562       O  0.52419863  0.59214593  0.57817920    -0.64700
C1563       C  0.64712031  0.57942849  0.77977891     0.77800
Tb1564     Tb  0.97962827  0.53842851  0.80033763     1.80700
O1565       O  0.63852962  0.60067906  0.80038386    -0.50200
O1566       O  0.61204832  0.02844956  0.83039238    -0.57600
C1567       C  0.57628826  0.63097620  0.82236506     0.93700
O1568       O  0.97158267  0.59945758  0.80559437    -0.57100
Tb1569     Tb  0.57268005  0.53567090  0.80093922     1.78100
O1570       O  0.90931188  0.97330861  0.79343104    -0.57600
O1571       O  0.50975473  0.96449422  0.76815609    -0.76500
O1572       O  0.58839228  0.60775709  0.83029765    -0.75800
O1573       O  0.55445124  0.54773039  0.75526759    -0.61000
C1574       C  0.97759239  0.94342843  0.77950371     0.93300
O1575       O  0.51354210  0.56015291  0.85069161    -0.73000
C1576       C  0.90338258  0.49135132  0.81867362     0.76700
C1577       C  0.60022817  0.98747853  0.81628805     0.77700
O1578       O  0.61809902  0.53679159  0.76875476    -0.58200
O1579       O  0.57202553  0.96906661  0.79343644    -0.50200
O1580       O  0.48827307  0.51731595  0.74977975    -0.76200
O1581       O  0.54210454  0.52182842  0.84501535    -0.60200
C1582       C  0.52666563  0.53951820  0.86136686     0.91500
C1583       C  0.52077291  0.53180315  0.73879980     0.92700
C1584       C  0.94889516  0.58401462  0.77973518     0.77000
O1585       O  0.93410171  0.53069153  0.83440056    -0.49600
O1586       O  0.93594873  0.04135700  0.75997198    -0.50700
O1587       O  0.96724184  0.96626226  0.79699075    -0.63600
O1588       O  0.54241836  0.61080402  0.80455901    -0.64700
C1589       C  0.53684931  0.01208678  0.90265072     0.25000
C1590       C  0.52366623  0.53536598  0.89376857    -0.23100
C1591       C  0.50233861  0.54908148  0.91154952     0.19900
C1592       C  0.49907548  0.54446209  0.94182529     0.24900
C1593       C  0.51690322  0.52582166  0.95518290    -0.23100
C1594       C  0.53322627  0.00672212  0.93276043     0.19800
F1595       F  0.04975791  0.98685145  0.94380785    -0.13000
F1596       F  0.05722899  0.99783229  0.88632796    -0.15400
F1597       F  0.47802768  0.55802110  0.95786471    -0.15400
F1598       F  0.48413664  0.56668560  0.89971908    -0.13000
C1599       C  0.54453990  0.52022462  0.68918344     0.25000
C1600       C  0.51963348  0.52948816  0.70537906    -0.23100
C1601       C  0.99398349  0.53689377  0.68940105     0.19900
C1602       C  0.99340180  0.53496909  0.65782928     0.24900
C1603       C  0.51899651  0.52654704  0.64179671    -0.23100
C1604       C  0.54451699  0.51923353  0.65778387     0.19800
F1605       F  0.56865800  0.50980455  0.64286182    -0.13000
F1606       F  0.56823693  0.51093405  0.70356168    -0.15400
F1607       F  0.96900652  0.54309842  0.64315493    -0.15400
F1608       F  0.97079844  0.54782239  0.70451848    -0.13000
C1609       C  0.60843456  0.75655930  0.84189148     0.25000
C1610       C  0.65107415  0.78251325  0.84452957    -0.22300
C1611       C  0.66916922  0.75827981  0.84446390     0.19900
C1612       C  0.64507706  0.70920107  0.83888676     0.24900
C1613       C  0.60241683  0.68315975  0.83323478    -0.23100
C1614       C  0.58461132  0.70766970  0.83645281     0.19800
F1615       F  0.54385535  0.68422884  0.83452622    -0.13000
F1616       F  0.58926680  0.77800719  0.84386632    -0.15400
F1617       F  0.66368623  0.68725094  0.83788944    -0.15400
F1618       F  0.71019295  0.78162281  0.84896178    -0.13000
C1619       C  0.79443057  0.89839042  0.82376340     0.25000
C1620       C  0.78173024  0.92562957  0.83867836    -0.23100
C1621       C  0.80992658  0.97495655  0.84795328     0.19900
C1622       C  0.84975681  0.99644426  0.84217188     0.24900
C1623       C  0.86174829  0.96914704  0.82612960    -0.23100
C1624       C  0.83365280  0.91994037  0.81706011     0.19800
F1625       F  0.84372796  0.89238150  0.80111082    -0.13000
F1626       F  0.76830393  0.85075471  0.81411877    -0.15400
F1627       F  0.87840065  0.54145061  0.85742685    -0.15400
F1628       F  0.79895667  0.00249247  0.86244210    -0.13000
C1629       C  0.67672841  0.97019216  0.84949897     0.25000
C1630       C  0.65828311  0.92225922  0.83572264    -0.23100
C1631       C  0.61978034  0.89544164  0.81655170     0.19900
C1632       C  0.60048452  0.91638467  0.81081295     0.24900
C1633       C  0.61907481  0.96448810  0.82438772    -0.23100
C1634       C  0.65728260  0.99110289  0.84399271     0.19800
F1635       F  0.67657911  0.03780091  0.85705535    -0.13000
F1636       F  0.71351560  0.99678413  0.86852795    -0.15400
F1637       F  0.56384321  0.88961033  0.79153877    -0.15400
F1638       F  0.60146276  0.84928762  0.80224449    -0.13000
C1639       C  0.56852005  0.69298461  0.58717837     0.25000
C1640       C  0.58527028  0.66742695  0.58085289    -0.23100
C1641       C  0.62738445  0.69220930  0.58138281     0.19900
C1642       C  0.65148300  0.74063776  0.58491861     0.24900
C1643       C  0.63418521  0.76590304  0.58837758    -0.23100
C1644       C  0.59269974  0.74171681  0.59091560     0.19800
F1645       F  0.57498195  0.76473522  0.59604528    -0.13000
F1646       F  0.52833759  0.67073689  0.58821220    -0.15400
F1647       F  0.69148488  0.76198576  0.58341978    -0.15400
F1648       F  0.64536214  0.66938224  0.57765152    -0.13000
C1649       C  0.81767893  0.90094011  0.56015399     0.25000
C1650       C  0.84561217  0.95012302  0.57051956    -0.23100
C1651       C  0.84033939  0.48075006  0.59229839     0.19900
C1652       C  0.79208825  0.95471033  0.58984621     0.24900
C1653       C  0.76385933  0.90573303  0.57845614    -0.23100
C1654       C  0.77723590  0.87896675  0.56410619     0.19800
F1655       F  0.75078092  0.83162066  0.55256802    -0.13000
F1656       F  0.82927672  0.87402463  0.54571214    -0.15400
F1657       F  0.78729113  0.48573997  0.60800775    -0.15400
F1658       F  0.86569331  0.52849775  0.60057663    -0.13000
C1659       C  0.64185141  0.91512706  0.54392347     0.25000
C1660       C  0.64033537  0.90166311  0.57162275    -0.23100
C1661       C  0.61762731  0.90721626  0.59278942     0.19900
C1662       C  0.59738256  0.92696973  0.58666238     0.24900
C1663       C  0.59879544  0.94037374  0.55891844    -0.23100
C1664       C  0.62079662  0.93379105  0.53741262     0.19800
F1665       F  0.62325992  0.94714857  0.51065947    -0.13000
F1666       F  0.66332430  0.90963157  0.52299865    -0.15400
F1667       F  0.57626873  0.93284469  0.60777221    -0.15400
F1668       F  0.61615520  0.89486884  0.61983487    -0.13000
C1669       C  0.87253798  0.60071810  0.74564440     0.25000
C1670       C  0.89200577  0.64928167  0.75806176    -0.23100
C1671       C  0.93161189  0.67654251  0.77560356     0.19900
C1672       C  0.95033313  0.65535354  0.78199764     0.24900
C1673       C  0.93057186  0.60673547  0.77025319    -0.23100
C1674       C  0.89192988  0.57973568  0.75132240     0.19800
F1675       F  0.86559967  0.02903117  0.73670518    -0.13000
F1676       F  0.83467654  0.57349563  0.72816913    -0.15400
F1677       F  0.98777765  0.68257342  0.80003987    -0.15400
F1678       F  0.95170114  0.72355572  0.78799377    -0.13000
C1679       C  0.96031403  0.86355365  0.75252997     0.25000
C1680       C  0.95137756  0.89118603  0.77270075    -0.23100
C1681       C  0.91690621  0.86821762  0.78683538     0.19900
C1682       C  0.89126394  0.81929640  0.78007225     0.24900
C1683       C  0.90015718  0.79181445  0.75997169    -0.23100
C1684       C  0.93505849  0.81438475  0.74640859     0.19800
F1685       F  0.94458893  0.78880040  0.72699341    -0.13000
F1686       F  0.99376862  0.88389201  0.73904231    -0.15400
F1687       F  0.85882211  0.79903668  0.79464246    -0.15400
F1688       F  0.90860223  0.89295399  0.80834620    -0.13000
C1689       C  0.74154619  0.59654780  0.75291771     0.25000
C1690       C  0.76824820  0.64599429  0.75909700    -0.23100
C1691       C  0.75332030  0.67266290  0.77013728     0.19900
C1692       C  0.71377343  0.65083546  0.77616470     0.24900
C1693       C  0.68763018  0.60177319  0.77071768    -0.23100
C1694       C  0.70155213  0.57469103  0.75839480     0.19800
F1695       F  0.67700437  0.52709160  0.75280676    -0.13000
F1696       F  0.75403011  0.56913205  0.74177989    -0.15400
F1697       F  0.70115914  0.67803283  0.78751242    -0.15400
F1698       F  0.77717797  0.72027500  0.77617205    -0.13000
C1699       C  0.93990792  0.63743054  0.52164622     0.25000
C1700       C  0.91744358  0.58811654  0.51407078    -0.23100
C1701       C  0.87896060  0.56311962  0.99850843     0.19900
C1702       C  0.85982147  0.58469436  0.99370615     0.24900
C1703       C  0.87914785  0.63237630  0.50498716    -0.23100
C1704       C  0.92098593  0.65931490  0.51748168     0.19800
F1705       F  0.94350571  0.70696030  0.52716699    -0.13000
F1706       F  0.98021314  0.66474290  0.53379944    -0.15400
F1707       F  0.82113303  0.55782245  0.97771169    -0.15400
F1708       F  0.85918726  0.01768743  0.98593624    -0.13000
C1709       C  0.87396902  0.79758404  0.49392977     0.25000
C1710       C  0.88707188  0.77592418  0.50899527    -0.23100
C1711       C  0.92355103  0.80413051  0.53058428     0.19900
C1712       C  0.94670798  0.85302101  0.53699711     0.24900
C1713       C  0.93401046  0.87524240  0.52189696    -0.23100
C1714       C  0.89726260  0.84678711  0.50019026     0.19800
F1715       F  0.88369010  0.86633383  0.48499052    -0.13000
F1716       F  0.83440353  0.77526212  0.98360545    -0.15400
F1717       F  0.98125033  0.87837859  0.55862259    -0.15400
F1718       F  0.93599735  0.78442642  0.54674043    -0.13000
C1719       C  0.69028897  0.61527606  0.50071904     0.25000
C1720       C  0.67932413  0.59447822  0.52565469    -0.23100
C1721       C  0.70747785  0.59190254  0.54273022     0.19900
C1722       C  0.74584676  0.60955291  0.53497187     0.24900
C1723       C  0.75729219  0.63142867  0.51058197    -0.23100
C1724       C  0.73097483  0.63205906  0.99189354     0.19800
F1725       F  0.73946133  0.64550804  0.96515238    -0.13000
F1726       F  0.66311749  0.60791812  0.97848364    -0.15400
F1727       F  0.77245204  0.60696630  0.55218209    -0.15400
F1728       F  0.69756714  0.57141914  0.56666636    -0.13000
loop_ 
_geom_bond_atom_site_label_1 
_geom_bond_atom_site_label_2 
_geom_bond_distance 
_geom_bond_site_symmetry_2 
_ccdc_geom_bond_type 
C1            N2   1.360       .  A
C1            N6   1.361       .  A
C1          C211   1.473       .  S
N2            C3   1.359       .  A
C3            N4   1.356       .  A
C3          C198   1.479       .  S
N4            C5   1.355       .  A
C5            N6   1.360       .  A
C5          C191   1.483       .  S
C7            N8   1.360       .  A
C7           N12   1.365       .  A
C7          C178   1.497       .  S
N8            C9   1.357       .  A
C9           N10   1.353       .  A
C9          C171   1.483       .  S
N10          C11   1.356       .  A
C11          N12   1.363       .  A
C11         C158   1.489       .  S
C13          N14   1.358       .  A
C13          N18   1.359       .  A
C13         C141   1.486       .  S
N14          C15   1.360       .  A
C15          N16   1.357       .  A
C15         C148   1.475       .  S
N16          C17   1.358       .  A
C17          N18   1.361       .  A
C17         C131   1.492       .  S
C19          N20   1.361       .  A
C19          N24   1.360       .  A
C19         C108   1.485       .  S
N20          C21   1.362       .  A
C21          N22   1.357       .  A
C21         C118   1.484       .  S
N22          C23   1.357       .  A
C23          N24   1.359       .  A
C23          C98   1.494       .  S
C25         C208   1.480       .  S
C25          O40   1.262       .  A
C25          O27   1.261       .  A
Tb26         O30   2.348       .  S
Tb26         O47   2.365       .  S
Tb26        O480   2.356       .  S
Tb26        O481   2.345   1_545  S
Tb26        O464   2.346   1_545  S
Tb26        O906   2.346       .  S
Tb26        O901   2.349       .  S
Tb26        O914   2.347       .  S
O27         Tb31   2.354       .  S
O28          C39   1.262       .  A
O28        Tb463   2.360       .  S
C29         C128   1.483       .  S
C29          O34   1.270       .  A
C29          O50   1.271       .  A
O30          C46   1.260       .  A
Tb31         O40   2.365       .  S
Tb31         O34   2.343       .  S
Tb31         O43   2.340       .  S
Tb31        O460   2.360   1_545  S
Tb31        O251   2.339   1_544  S
Tb31        O473   2.343   1_545  S
Tb31        O465   2.338   1_545  S
O32         C470   1.261       .  A
O32        Tb458   2.352       .  S
O33         C900   1.269   1_455  A
O33        Tb463   2.339       .  S
O35          C45   1.268   1_565  A
O35        Tb247   2.332   1_565  S
C36         C201   1.487       .  S
C36          O49   1.269       .  A
C36         O897   1.269       .  A
O37          C44   1.271   1_655  A
O37        Tb890   2.349       .  S
C38         C570   1.481       .  S
C38          O47   1.261   1_565  A
C38         O464   1.260       .  A
C39         C151   1.472       .  S
C39          O41   1.260       .  A
O41        Tb463   2.348       .  S
O42         C261   1.269   1_654  A
O42        Tb890   2.346       .  S
O43          C44   1.270       .  A
C44          C91   1.486       .  S
C45          C81   1.483       .  S
C45         O258   1.271   1_455  A
C46         C188   1.477       .  S
C46         O480   1.260       .  A
O48         C478   1.261       .  A
O48        Tb458   2.362       .  S
O49        Tb458   2.344       .  S
O50        Tb890   2.348   1_455  S
C51         C181   1.481       .  S
C51          O66   1.260       .  A
C51          O53   1.260       .  A
Tb52         O56   2.337       .  S
Tb52         O73   2.369       .  S
Tb52        O506   2.366       .  S
Tb52        O507   2.338   1_545  S
Tb52        O490   2.355   1_545  S
Tb52        O932   2.336       .  S
Tb52        O927   2.329       .  S
Tb52        O940   2.353       .  S
O53         Tb57   2.352       .  S
O54          C65   1.260       .  A
O54        Tb489   2.356       .  S
C55         C101   1.484       .  S
C55          O60   1.271       .  A
C55          O76   1.273       .  A
O56          C72   1.260       .  A
Tb57         O61   2.350       .  S
Tb57         O66   2.368       .  S
Tb57         O60   2.343       .  S
Tb57         O69   2.352       .  S
Tb57        O486   2.361       .  S
Tb57        O499   2.353   1_545  S
Tb57        O491   2.347   1_545  S
O58         C496   1.260       .  A
O58        Tb484   2.356       .  S
O59         C926   1.269   1_455  A
O59        Tb489   2.345       .  S
O61          C71   1.270       .  A
C62         C168   1.487       .  S
C62          O75   1.267       .  A
C62         O923   1.269       .  A
O63          C70   1.271       .  A
O63        Tb916   2.329   1_455  S
C64         C543   1.486       .  S
C64          O73   1.261   1_565  A
C64         O490   1.260       .  A
C65         C121   1.481       .  S
C65          O67   1.262       .  A
O67        Tb489   2.354       .  S
O68          C71   1.269   1_655  A
O68        Tb916   2.336       .  S
O69          C70   1.274       .  A
C70          C78   1.487       .  S
C71          C88   1.485       .  S
C72         C161   1.476       .  S
C72         O506   1.262       .  A
O74         C504   1.262       .  A
O74        Tb484   2.365       .  S
O75        Tb484   2.340       .  S
O76        Tb916   2.352   1_455  S
C77          C82   1.397       .  A
C77         C510   1.413       .  A
C77         F948   1.358       .  S
C78          C79   1.411   1_455  A
C78         C509   1.411       .  A
C79          C80   1.396       .  A
C79          F86   1.358       .  S
C80          C81   1.408   1_655  A
C80          F85   1.358       .  S
C81         C514   1.409       .  A
C82         C513   1.409       .  A
C82         F947   1.358       .  S
F83         C946   1.358       .  S
F84         C941   1.358       .  S
C87          C88   1.411       .  A
C87          C92   1.399       .  A
C87          F94   1.358       .  S
C88         C953   1.408   1_445  A
C89          C90   1.396       .  A
C89         C952   1.408   1_565  A
C89          F96   1.358       .  S
C90         C955   1.410   1_565  A
C90          F95   1.358       .  S
C91          C92   1.409       .  A
C91         C954   1.410   1_445  A
C92          F93   1.358       .  S
C97          C98   1.413       .  A
C97         C102   1.397       .  A
C97         F104   1.357       .  S
C98          C99   1.412       .  A
C99         C100   1.400       .  A
C99         F106   1.358       .  S
C100        C101   1.406       .  A
C100        F105   1.356       .  S
C101        C102   1.406       .  A
C102        F103   1.357       .  S
C107        C108   1.407       .  A
C107        C112   1.399       .  A
C107        F114   1.358       .  S
C108        C109   1.407       .  A
C109        C110   1.404       .  A
C109        F116   1.358       .  S
C110        C111   1.410       .  A
C110        F547   1.357       .  S
C111        C496   1.488       .  S
C111        C112   1.409       .  A
C112        F113   1.357       .  S
F115        C542   1.357   1_545  S
C117        C118   1.406       .  A
C117        C122   1.401       .  A
C117        F124   1.358       .  S
C118        C119   1.410       .  A
C119        C120   1.397       .  A
C119        F126   1.358       .  S
C120        C121   1.405       .  A
C120        F125   1.358       .  S
C121        C122   1.410       .  A
C122        F123   1.358       .  S
C127        C128   1.406       .  A
C127        C132   1.401       .  A
C127        F134   1.356       .  S
C128        C129   1.406       .  A
C129        C130   1.395       .  A
C129        F136   1.357       .  S
C130        C131   1.411       .  A
C130        F135   1.357       .  S
C131        C132   1.414       .  A
C132        F133   1.358       .  S
C137        C138   1.406       .  A
C137        C142   1.399       .  A
C137        F144   1.358       .  S
C138        C470   1.481       .  S
C138        C571   1.408       .  A
C139        C570   1.409       .  A
C139        C572   1.402       .  A
C139        F146   1.358   1_565  S
C140        C141   1.409       .  A
C140        C571   1.402       .  A
C140        F577   1.358       .  S
C141        C142   1.409       .  A
C142        F143   1.357       .  S
F145        C572   1.358       .  S
C147        C148   1.405       .  A
C147        C152   1.396       .  A
C147        F154   1.358       .  S
C148        C149   1.408       .  A
C149        C150   1.402       .  A
C149        F156   1.358       .  S
C150        C151   1.405       .  A
C150        F155   1.358       .  S
C151        C152   1.405       .  A
C152        F153   1.358       .  S
C157        C158   1.411       .  A
C157        C162   1.403       .  A
C157        F164   1.357       .  S
C158        C159   1.413       .  A
C159        C160   1.394       .  A
C159        F166   1.358       .  S
C160        C161   1.402       .  A
C160        F165   1.358       .  S
C161        C162   1.407       .  A
C162        F595   1.358       .  S
F163        C594   1.358       .  S
C167        C168   1.410       .  A
C167        C172   1.401       .  A
C167        F174   1.358       .  S
C168        C169   1.412       .  A
C169        C170   1.393       .  A
C169        F176   1.357       .  S
C170        C171   1.405       .  A
C170        F175   1.357       .  S
C171        C172   1.410       .  A
C172        F173   1.358       .  S
C177        C178   1.413       .  A
C177        C182   1.403       .  A
C177        F184   1.357       .  S
C178        C179   1.415       .  A
C179        C180   1.398       .  A
C179        F186   1.357       .  S
C180        C181   1.403       .  A
C180        F185   1.358       .  S
C181        C182   1.406       .  A
C182        F183   1.358       .  S
C187        C188   1.404       .  A
C187        C192   1.395       .  A
C187        F194   1.357       .  S
C188        C405   1.407   1_554  A
C189        C190   1.402       .  A
C189        C404   1.410       .  A
C189        F628   1.357       .  S
C190        C407   1.404       .  A
C190        F195   1.357       .  S
C191        C192   1.410       .  A
C191        C406   1.407   1_554  A
C192        F193   1.356       .  S
F196        C621   1.358       .  S
C197        C198   1.406   1_556  A
C197        C202   1.404   1_556  A
C197        F420   1.358       .  S
C198        C199   1.405       .  A
C199        C200   1.390       .  A
C199        F206   1.357       .  S
C200        C201   1.411       .  A
C200        F205   1.359       .  S
C201        C202   1.412       .  A
C202        F203   1.357   1_554  S
F204        C413   1.358       .  S
C207        C208   1.408   1_556  A
C207        C428   1.403       .  A
C207        F430   1.357       .  S
C208        C209   1.408       .  A
C209        C210   1.399       .  A
C209        F216   1.358       .  S
C210        C211   1.404       .  A
C210        F215   1.358       .  S
C211        C428   1.404   1_554  A
C212        C423   1.404       .  A
C212        C427   1.406       .  A
C212        F213   1.358       .  S
F214        C423   1.358       .  S
C217        N218   1.363       .  A
C217        N222   1.361       .  A
C217        C427   1.474       .  S
N218        C219   1.362       .  A
C219        N220   1.354       .  A
C219        C414   1.490       .  S
N220        C221   1.352       .  A
C221        N222   1.357       .  A
C221        C407   1.473       .  S
C223        N224   1.359       .  A
C223        N228   1.364       .  A
C223        C394   1.495       .  S
N224        C225   1.357       .  A
C225        N226   1.354       .  A
C225        C387   1.481       .  S
N226        C227   1.358       .  A
C227        N228   1.363       .  A
C227        C374   1.489       .  S
C229        N230   1.359       .  A
C229        N234   1.359       .  A
C229        C357   1.486       .  S
N230        C231   1.357       .  A
C231        N232   1.356       .  A
C231        C364   1.469       .  S
N232        C233   1.358       .  A
C233        N234   1.359       .  A
C233        C347   1.489       .  S
C235        N236   1.361       .  A
C235        N240   1.359       .  A
C235        C324   1.483       .  S
N236        C237   1.361       .  A
C237        N238   1.356       .  A
C237        C334   1.483       .  S
N238        C239   1.357       .  A
C239        N240   1.358       .  A
C239        C314   1.492       .  S
C241        C424   1.477       .  S
C241        O256   1.262       .  A
C241        O243   1.262       .  A
Tb242       O696   2.363       .  S
Tb242       O697   2.347   1_545  S
Tb242       O680   2.356   1_545  S
Tb242      O1122   2.348       .  S
Tb242      O1117   2.342       .  S
Tb242       O246   2.341       .  S
Tb242      O1130   2.344       .  S
Tb242       O263   2.353       .  S
O243       Tb247   2.346       .  S
O244        C255   1.260       .  A
O244       Tb679   2.356       .  S
C245        C344   1.484       .  S
C245        O250   1.268       .  A
C245        O266   1.268       .  A
O246        C262   1.258       .  A
Tb247       O676   2.346   1_545  S
Tb247       O256   2.361       .  S
Tb247       O250   2.341       .  S
Tb247       O689   2.353   1_545  S
Tb247       O259   2.339       .  S
Tb247       O681   2.341   1_445  S
O248        C686   1.260       .  A
O248       Tb674   2.347       .  S
O249       C1116   1.272       .  A
O249       Tb679   2.351   1_655  S
O251        C261   1.269   1_565  A
C252        C417   1.487       .  S
C252       O1113   1.272       .  A
C252        O265   1.269       .  A
O253        C260   1.272   1_655  A
O253      Tb1106   2.343       .  S
C254        C786   1.478       .  S
C254        O680   1.260       .  A
C254        O263   1.258   1_565  A
C255        C367   1.469       .  S
C255        O257   1.260       .  A
O257       Tb679   2.344       .  S
O258      Tb1106   2.349       .  S
O259        C260   1.272       .  A
C260        C307   1.478       .  S
C261        C297   1.489       .  S
C262        C404   1.478       .  S
C262        O696   1.261       .  A
O264        C694   1.260       .  A
O264       Tb674   2.364       .  S
O265       Tb674   2.340       .  S
O266      Tb1106   2.344   1_455  S
C267        C397   1.480       .  S
C267        O282   1.259       .  A
C267        O269   1.260       .  A
Tb268       O722   2.371       .  S
Tb268       O723   2.341   1_545  S
Tb268       O706   2.351   1_545  S
Tb268      O1148   2.338       .  S
Tb268      O1143   2.337       .  S
Tb268       O272   2.347       .  S
Tb268      O1156   2.355       .  S
Tb268       O289   2.358       .  S
O269       Tb273   2.355       .  S
O270        C281   1.260       .  A
O270       Tb705   2.359       .  S
C271        C317   1.483       .  S
C271        O276   1.270       .  A
C271        O292   1.273       .  A
O272        C288   1.260       .  A
Tb273       O702   2.357       .  S
Tb273       O277   2.339       .  S
Tb273       O282   2.362       .  S
Tb273       O276   2.340       .  S
Tb273       O715   2.351   1_545  S
Tb273       O285   2.355       .  S
Tb273       O707   2.341   1_545  S
O274        C712   1.261       .  A
O274       Tb700   2.354       .  S
O275       C1142   1.268   1_455  A
O275       Tb705   2.342       .  S
O277        C287   1.269       .  A
C278        C384   1.489       .  S
C278       O1139   1.268       .  A
C278        O291   1.268       .  A
O279        C286   1.272       .  A
O279      Tb1132   2.337   1_455  S
C280        C759   1.479       .  S
C280        O706   1.261       .  A
C280        O289   1.262   1_565  A
C281        C337   1.479       .  S
C281        O283   1.260       .  A
O283       Tb705   2.352       .  S
O284        C287   1.271   1_655  A
O284      Tb1132   2.338       .  S
O285        C286   1.274       .  A
C286        C294   1.490       .  S
C287        C304   1.475       .  S
C288        C377   1.482       .  S
C288        O722   1.262       .  A
O290        C720   1.261       .  A
O290       Tb700   2.359       .  S
O291       Tb700   2.343       .  S
O292      Tb1132   2.355   1_455  S
C293        C726   1.411       .  A
C293        C298   1.396       .  A
C293       F1164   1.358       .  S
C294        C725   1.411       .  A
C294        C295   1.410   1_455  A
C295        C296   1.398       .  A
C295        F302   1.358       .  S
C296        C297   1.412   1_655  A
C296        F301   1.358       .  S
C297        C730   1.409       .  A
C298        C729   1.408       .  A
C298       F1163   1.358       .  S
F299       C1162   1.358       .  S
F300       C1157   1.358       .  S
C303        C304   1.408       .  A
C303        C308   1.397       .  A
C303        F310   1.358       .  S
C304       C1169   1.404   1_455  A
C305       C1168   1.404       .  A
C305        C306   1.396       .  A
C305        F312   1.357       .  S
C306       C1171   1.409       .  A
C306        F311   1.358       .  S
C307       C1170   1.409   1_455  A
C307        C308   1.407       .  A
C308        F309   1.358       .  S
C313        C314   1.412       .  A
C313        C318   1.395       .  A
C313        F320   1.358       .  S
C314        C315   1.412       .  A
C315        C316   1.400       .  A
C315        F322   1.358       .  S
C316        C317   1.407       .  A
C316        F321   1.356       .  S
C317        C318   1.405       .  A
C318        F319   1.356       .  S
C323        C324   1.408       .  A
C323        C328   1.397       .  A
C323        F330   1.358       .  S
C324        C325   1.408       .  A
C325        C326   1.402       .  A
C325        F332   1.358       .  S
C326        C327   1.408       .  A
C326        F763   1.358       .  S
C327        C712   1.482       .  S
C327        C328   1.406       .  A
C328        F329   1.356       .  S
F331        C758   1.358   1_545  S
C333        C334   1.406       .  A
C333        C338   1.400       .  A
C333        F340   1.358       .  S
C334        C335   1.410       .  A
C335        C336   1.397       .  A
C335        F342   1.358       .  S
C336        C337   1.405       .  A
C336        F341   1.358       .  S
C337        C338   1.409       .  A
C338        F339   1.358       .  S
C343        C344   1.407       .  A
C343        C348   1.401       .  A
C343        F350   1.356       .  S
C344        C345   1.407       .  A
C345        C346   1.394       .  A
C345        F352   1.357       .  S
C346        C347   1.410       .  A
C346        F351   1.356       .  S
C347        C348   1.412       .  A
C348        F349   1.358       .  S
C353        C354   1.404       .  A
C353        C358   1.396       .  A
C353        F360   1.358       .  S
C354        C686   1.477       .  S
C354        C787   1.406       .  A
C355        C786   1.409       .  A
C355        C788   1.399       .  A
C355        F362   1.358   1_565  S
C356        C787   1.400       .  A
C356        C357   1.410       .  A
C356        F793   1.358       .  S
C357        C358   1.410       .  A
C358        F359   1.356       .  S
F361        C788   1.358       .  S
C363        C364   1.403       .  A
C363        C368   1.395       .  A
C363        F370   1.358       .  S
C364        C365   1.405       .  A
C365        C366   1.400       .  A
C365        F372   1.358       .  S
C366        C367   1.405       .  A
C366        F371   1.358       .  S
C367        C368   1.405       .  A
C368        F369   1.358       .  S
C373        C374   1.410       .  A
C373        C378   1.406       .  A
C373        F380   1.358       .  S
C374        C375   1.411       .  A
C375        C376   1.395       .  A
C375        F382   1.358       .  S
C376        C377   1.404       .  A
C376        F381   1.357       .  S
C377        C378   1.409       .  A
C378        F811   1.358       .  S
F379        C810   1.358       .  S
C383        C384   1.411       .  A
C383        C388   1.402       .  A
C383        F390   1.358       .  S
C384        C385   1.411       .  A
C385        C386   1.394       .  A
C385        F392   1.356       .  S
C386        C387   1.405       .  A
C386        F391   1.358       .  S
C387        C388   1.408       .  A
C388        F389   1.358       .  S
C393        C394   1.411       .  A
C393        C398   1.402       .  A
C393        F400   1.357       .  S
C394        C395   1.415       .  A
C395        C396   1.398       .  A
C395        F402   1.357       .  S
C396        C397   1.403       .  A
C396        F401   1.358       .  S
C397        C398   1.407       .  A
C398        F399   1.358       .  S
C403        C404   1.407       .  A
C403        C408   1.392       .  A
C403        F410   1.357       .  S
C405        C406   1.400       .  A
C405        F844   1.358       .  S
C406        F411   1.357       .  S
C407        C408   1.405       .  A
C408        F409   1.358       .  S
F412        C837   1.358       .  S
C413        C414   1.409       .  A
C413        C418   1.403       .  A
C414        C415   1.413       .  A
C415        C416   1.393       .  A
C415        F422   1.358       .  S
C416        C417   1.406       .  A
C416        F421   1.358       .  S
C417        C418   1.411       .  A
C418        F419   1.357       .  S
C423        C424   1.408       .  A
C424        C425   1.406       .  A
C425        C426   1.395       .  A
C425        F432   1.358       .  S
C426        C427   1.404       .  A
C426        F431   1.358       .  S
C428        F429   1.357       .  S
C433        N434   1.358       .  A
C433        N438   1.360       .  A
C433        C643   1.470       .  S
N434        C435   1.358       .  A
C435        N436   1.356       .  A
C435        C630   1.485       .  S
N436        C437   1.355       .  A
C437        N438   1.358       .  A
C437        C623   1.478       .  S
C439        N440   1.359       .  A
C439        N444   1.364       .  A
C439        C610   1.493       .  S
N440        C441   1.356       .  A
C441        N442   1.354       .  A
C441        C603   1.484       .  S
N442        C443   1.357       .  A
C443        N444   1.365       .  A
C443        C590   1.488       .  S
C445        N446   1.356       .  A
C445        N450   1.357       .  A
C445        C573   1.478       .  S
N446        C447   1.359       .  A
C447        N448   1.359       .  A
C447        C580   1.474       .  S
N448        C449   1.361       .  A
C449        N450   1.359       .  A
C449        C563   1.495       .  S
C451        N452   1.362       .  A
C451        N456   1.359       .  A
C451        C540   1.482       .  S
N452        C453   1.361       .  A
C453        N454   1.357       .  A
C453        C550   1.484       .  S
N454        C455   1.356       .  A
C455        N456   1.359       .  A
C455        C530   1.493       .  S
C457        C640   1.478       .  S
C457        O472   1.262       .  A
C457        O459   1.261       .  A
Tb458      O1338   2.346       .  S
Tb458      O1333   2.341       .  S
Tb458       O462   2.338       .  S
Tb458      O1346   2.353       .  S
Tb458       O479   2.362       .  S
O459       Tb463   2.348       .  S
O460        C471   1.262       .  A
C461        C560   1.487       .  S
C461        O466   1.270       .  A
C461        O482   1.272       .  A
O462        C478   1.260       .  A
Tb463       O683   2.332   1_554  S
Tb463       O472   2.362       .  S
Tb463       O466   2.343       .  S
Tb463       O475   2.339       .  S
O465       C1332   1.269   1_455  A
O467        C477   1.267       .  A
O467       Tb679   2.329       .  S
C468        C633   1.487       .  S
C468       O1329   1.269       .  A
C468        O481   1.270       .  A
O469        C476   1.269   1_655  A
O469      Tb1322   2.341       .  S
C470        O479   1.261       .  A
C471        C583   1.472       .  S
C471        O473   1.260       .  A
O474        C693   1.269   1_554  A
O474      Tb1322   2.346   1_455  S
O475        C476   1.271       .  A
C476        C523   1.483       .  S
C477        C513   1.485       .  S
C477        O690   1.271   1_455  A
C478        C620   1.474       .  S
O482      Tb1322   2.353   1_455  S
C483        C613   1.484       .  S
C483        O498   1.260       .  A
C483        O485   1.259       .  A
Tb484      O1364   2.340       .  S
Tb484      O1359   2.337       .  S
Tb484       O488   2.341       .  S
Tb484      O1372   2.350       .  S
Tb484       O505   2.372       .  S
O485       Tb489   2.347       .  S
O486        C497   1.261   1_545  A
C487        C533   1.486       .  S
C487        O492   1.271       .  A
C487        O508   1.272       .  A
O488        C504   1.260       .  A
Tb489       O493   2.344       .  S
Tb489       O498   2.375       .  S
Tb489       O492   2.345       .  S
Tb489       O501   2.349       .  S
O491       C1358   1.269   1_455  A
O493        C503   1.269       .  A
C494        C600   1.488       .  S
C494       O1355   1.269       .  A
C494        O507   1.267       .  A
O495        C502   1.273       .  A
O495      Tb1348   2.337   1_455  S
C496        O505   1.262       .  A
C497        C553   1.482       .  S
C497        O499   1.262       .  A
O500        C503   1.270   1_655  A
O500      Tb1348   2.341       .  S
O501        C502   1.273       .  A
C502        C510   1.489       .  S
C503        C520   1.485       .  S
C504        C593   1.477       .  S
O508      Tb1348   2.350   1_455  S
C509        C514   1.396       .  A
C509       F1380   1.358   1_545  S
C510        C511   1.410   1_455  A
C511        C512   1.396       .  A
C511        F518   1.358       .  S
C512        C513   1.409   1_655  A
C512        F517   1.358       .  S
C514       F1379   1.358   1_545  S
F515       C1378   1.358   1_565  S
F516       C1373   1.358   1_565  S
C519        C520   1.411       .  A
C519        C524   1.397       .  A
C519        F526   1.358       .  S
C520       C1385   1.408   1_455  A
C521       C1384   1.408       .  A
C521        C522   1.396       .  A
C521        F528   1.358       .  S
C522       C1387   1.411       .  A
C522        F527   1.359       .  S
C523       C1386   1.411   1_455  A
C523        C524   1.407       .  A
C524        F525   1.358       .  S
C529        C530   1.413       .  A
C529        C534   1.397       .  A
C529        F536   1.357       .  S
C530        C531   1.411       .  A
C531        C532   1.400       .  A
C531        F538   1.358       .  S
C532        C533   1.407       .  A
C532        F537   1.355       .  S
C533        C534   1.407       .  A
C534        F535   1.357       .  S
C539        C540   1.407       .  A
C539        C544   1.399       .  A
C539        F546   1.358       .  S
C540        C541   1.406       .  A
C541        C542   1.403       .  A
C541        F548   1.358       .  S
C542        C543   1.410       .  A
C543        C544   1.408       .  A
C544        F545   1.358       .  S
C549        C550   1.407       .  A
C549        C554   1.403       .  A
C549        F556   1.358       .  S
C550        C551   1.410       .  A
C551        C552   1.396       .  A
C551        F558   1.358       .  S
C552        C553   1.406       .  A
C552        F557   1.358       .  S
C553        C554   1.410       .  A
C554        F555   1.358   1_565  S
C559        C560   1.407       .  A
C559        C564   1.402       .  A
C559        F566   1.356       .  S
C560        C561   1.408       .  A
C561        C562   1.396       .  A
C561        F568   1.358       .  S
C562        C563   1.412       .  A
C562        F567   1.358       .  S
C563        C564   1.413       .  A
C564        F565   1.358       .  S
C569        C570   1.407       .  A
C569        C574   1.396       .  A
C569        F576   1.358       .  S
C571        F578   1.358       .  S
C572        C573   1.406       .  A
C573        C574   1.405       .  A
C574        F575   1.358       .  S
C579        C580   1.405       .  A
C579        C584   1.394       .  A
C579        F586   1.358       .  S
C580        C581   1.407       .  A
C581        C582   1.403       .  A
C581        F588   1.358       .  S
C582        C583   1.406       .  A
C582        F587   1.358       .  S
C583        C584   1.405       .  A
C584        F585   1.359       .  S
C589        C590   1.410       .  A
C589        C594   1.403       .  A
C589        F596   1.357       .  S
C590        C591   1.413       .  A
C591        C592   1.395       .  A
C591        F598   1.358       .  S
C592        C593   1.403       .  A
C592        F597   1.358       .  S
C593        C594   1.407       .  A
C599        C600   1.410       .  A
C599        C604   1.401       .  A
C599        F606   1.358       .  S
C600        C601   1.412       .  A
C601        C602   1.393       .  A
C601        F608   1.358       .  S
C602        C603   1.406       .  A
C602        F607   1.356       .  S
C603        C604   1.409       .  A
C604        F605   1.358       .  S
C609        C610   1.411       .  A
C609        C614   1.406       .  A
C609        F616   1.357       .  S
C610        C611   1.411       .  A
C611        C612   1.394       .  A
C611        F618   1.356       .  S
C612        C613   1.404       .  A
C612        F617   1.357       .  S
C613        C614   1.409       .  A
C614        F615   1.358       .  S
C619        C620   1.403       .  A
C619        C624   1.392       .  A
C619        F626   1.357       .  S
C620        C837   1.408   1_554  A
C621        C836   1.408       .  A
C621        C622   1.402       .  A
C622        C839   1.410       .  A
C622        F627   1.358       .  S
C623        C838   1.407   1_554  A
C623        C624   1.407       .  A
C624        F625   1.356       .  S
C629        C630   1.409   1_556  A
C629        C634   1.402   1_556  A
C629        F852   1.358       .  S
C630        C631   1.409       .  A
C631        C632   1.391       .  A
C631        F638   1.356       .  S
C632        C633   1.409       .  A
C632        F637   1.358       .  S
C633        C634   1.411       .  A
C634        F635   1.357   1_554  S
F636        C845   1.358       .  S
C639        C640   1.408   1_556  A
C639        C860   1.402       .  A
C639        F862   1.358       .  S
C640        C641   1.408       .  A
C641        C642   1.396       .  A
C641        F648   1.358       .  S
C642        C643   1.403       .  A
C642        F647   1.358       .  S
C643        C860   1.404   1_554  A
C644        C855   1.403       .  A
C644        C859   1.407       .  A
C644        F645   1.358       .  S
F646        C855   1.358       .  S
C649        N650   1.357       .  A
C649        N654   1.361       .  A
C649        C859   1.475       .  S
N650        C651   1.356       .  A
C651        N652   1.359       .  A
C651        C846   1.476       .  S
N652        C653   1.358       .  A
C653        N654   1.361       .  A
C653        C839   1.490       .  S
C655        N656   1.358       .  A
C655        N660   1.363       .  A
C655        C826   1.492       .  S
N656        C657   1.356       .  A
C657        N658   1.354       .  A
C657        C819   1.478       .  S
N658        C659   1.357       .  A
C659        N660   1.362       .  A
C659        C806   1.482       .  S
C661        N662   1.358       .  A
C661        N666   1.355       .  A
C661        C789   1.478       .  S
N662        C663   1.359       .  A
C663        N664   1.358       .  A
C663        C796   1.470       .  S
N664        C665   1.358       .  A
C665        N666   1.358       .  A
C665        C779   1.489       .  S
C667        N668   1.360       .  A
C667        N672   1.358       .  A
C667        C756   1.484       .  S
N668        C669   1.360       .  A
C669        N670   1.357       .  A
C669        C766   1.480       .  S
N670        C671   1.358       .  A
C671        N672   1.357       .  A
C671        C746   1.492       .  S
C673        C856   1.474       .  S
C673        O688   1.261       .  A
C673        O675   1.260       .  A
Tb674      O1554   2.355       .  S
Tb674      O1549   2.349       .  S
Tb674       O678   2.352       .  S
Tb674      O1562   2.340       .  S
Tb674       O695   2.358       .  S
O675       Tb679   2.349       .  S
O676        C687   1.260       .  A
C677        C776   1.482       .  S
C677        O682   1.270       .  A
C677        O698   1.268       .  A
O678        C694   1.259       .  A
Tb679       O688   2.363       .  S
Tb679       O682   2.343       .  S
Tb679       O691   2.333       .  S
O681       C1548   1.267       .  A
O683        C693   1.268       .  A
C684        C849   1.489       .  S
C684       O1545   1.267       .  A
C684        O697   1.269       .  A
O685        C692   1.270   1_655  A
O685      Tb1538   2.348       .  S
C686        O695   1.260       .  A
C687        C799   1.472       .  S
C687        O689   1.262       .  A
O690      Tb1538   2.355       .  S
O691        C692   1.269       .  A
C692        C739   1.475       .  S
C693        C729   1.484       .  S
C694        C836   1.482       .  S
O698      Tb1538   2.340   1_455  S
C699        C829   1.479       .  S
C699        O714   1.259       .  A
C699        O701   1.260       .  A
Tb700      O1580   2.338       .  S
Tb700      O1575   2.336       .  S
Tb700       O704   2.346       .  S
Tb700      O1588   2.352       .  S
Tb700       O721   2.360       .  S
O701       Tb705   2.352       .  S
O702        C713   1.261   1_545  A
C703        C749   1.485       .  S
C703        O708   1.270       .  A
C703        O724   1.272       .  A
O704        C720   1.261       .  A
Tb705       O709   2.345       .  S
Tb705       O714   2.361       .  S
Tb705       O708   2.347       .  S
Tb705       O717   2.348       .  S
O707       C1574   1.268   1_455  A
O709        C719   1.271       .  A
C710        C816   1.488       .  S
C710       O1571   1.268       .  A
C710        O723   1.268       .  A
O711        C718   1.270       .  A
O711      Tb1564   2.335   1_455  S
C712        O721   1.262       .  A
C713        C769   1.480       .  S
C713        O715   1.260       .  A
O716        C719   1.271   1_655  A
O716      Tb1564   2.337       .  S
O717        C718   1.272       .  A
C718        C726   1.486       .  S
C719        C736   1.477       .  S
C720        C809   1.476       .  S
O724      Tb1564   2.352   1_455  S
C725        C730   1.397       .  A
C725       F1596   1.358   1_545  S
C726        C727   1.410       .  A
C727        C728   1.396   1_455  A
C727        F734   1.358   1_455  S
C728        C729   1.410   1_655  A
C728        F733   1.358       .  S
C730       F1595   1.358   1_545  S
F731       C1594   1.358   1_565  S
F732       C1589   1.358   1_565  S
C735        C736   1.408       .  A
C735        C740   1.396       .  A
C735        F742   1.358       .  S
C736       C1601   1.407   1_455  A
C737       C1600   1.407       .  A
C737        C738   1.398       .  A
C737        F744   1.357       .  S
C738       C1603   1.407       .  A
C738        F743   1.358       .  S
C739       C1602   1.407   1_455  A
C739        C740   1.405       .  A
C740        F741   1.357       .  S
C745        C746   1.411       .  A
C745        C750   1.396       .  A
C745        F752   1.358       .  S
C746        C747   1.414       .  A
C747        C748   1.401       .  A
C747        F754   1.358       .  S
C748        C749   1.406       .  A
C748        F753   1.356       .  S
C749        C750   1.405       .  A
C750        F751   1.354       .  S
C755        C756   1.409       .  A
C755        C760   1.396       .  A
C755        F762   1.358       .  S
C756        C757   1.409       .  A
C757        C758   1.402       .  A
C757        F764   1.358   1_565  S
C758        C759   1.407       .  A
C759        C760   1.405       .  A
C760        F761   1.356       .  S
C765        C766   1.405       .  A
C765        C770   1.400       .  A
C765        F772   1.358       .  S
C766        C767   1.408       .  A
C767        C768   1.398       .  A
C767        F774   1.358       .  S
C768        C769   1.407       .  A
C768        F773   1.358       .  S
C769        C770   1.409       .  A
C770        F771   1.358   1_565  S
C775        C776   1.407       .  A
C775        C780   1.401       .  A
C775        F782   1.357       .  S
C776        C777   1.406       .  A
C777        C778   1.393       .  A
C777        F784   1.358       .  S
C778        C779   1.411       .  A
C778        F783   1.357       .  S
C779        C780   1.412       .  A
C780        F781   1.358       .  S
C785        C786   1.406       .  A
C785        C790   1.397       .  A
C785        F792   1.358       .  S
C787        F794   1.358       .  S
C788        C789   1.405       .  A
C789        C790   1.408       .  A
C790        F791   1.358       .  S
C795        C796   1.404       .  A
C795        C800   1.398       .  A
C795        F802   1.358       .  S
C796        C797   1.404       .  A
C797        C798   1.399       .  A
C797        F804   1.358       .  S
C798        C799   1.406       .  A
C798        F803   1.358       .  S
C799        C800   1.406       .  A
C800        F801   1.358       .  S
C805        C806   1.408       .  A
C805        C810   1.402       .  A
C805        F812   1.358       .  S
C806        C807   1.409       .  A
C807        C808   1.394       .  A
C807        F814   1.358       .  S
C808        C809   1.404       .  A
C808        F813   1.356       .  S
C809        C810   1.407       .  A
C815        C816   1.411       .  A
C815        C820   1.402       .  A
C815        F822   1.357       .  S
C816        C817   1.411       .  A
C817        C818   1.393       .  A
C817        F824   1.356       .  S
C818        C819   1.404       .  A
C818        F823   1.358       .  S
C819        C820   1.406       .  A
C820        F821   1.358       .  S
C825        C826   1.411       .  A
C825        C830   1.403       .  A
C825        F832   1.358       .  S
C826        C827   1.414       .  A
C827        C828   1.395       .  A
C827        F834   1.357       .  S
C828        C829   1.402       .  A
C828        F833   1.357       .  S
C829        C830   1.408       .  A
C830        F831   1.358       .  S
C835        C836   1.405       .  A
C835        C840   1.398       .  A
C835        F842   1.358       .  S
C837        C838   1.402       .  A
C838        F843   1.358       .  S
C839        C840   1.411       .  A
C840        F841   1.357       .  S
C845        C846   1.405       .  A
C845        C850   1.403       .  A
C846        C847   1.403       .  A
C847        C848   1.394       .  A
C847        F854   1.358       .  S
C848        C849   1.412       .  A
C848        F853   1.358       .  S
C849        C850   1.412       .  A
C850        F851   1.358       .  S
C855        C856   1.406       .  A
C856        C857   1.406       .  A
C857        C858   1.396       .  A
C857        F864   1.358       .  S
C858        C859   1.404       .  A
C858        F863   1.358       .  S
C860        F861   1.358       .  S
C865        N866   1.360       .  A
C865        N870   1.361       .  A
C865       C1075   1.472       .  S
N866        C867   1.359       .  A
C867        N868   1.356       .  A
C867       C1062   1.480       .  S
N868        C869   1.355       .  A
C869        N870   1.360       .  A
C869       C1055   1.482       .  S
C871        N872   1.359       .  A
C871        N876   1.365       .  A
C871       C1042   1.497       .  S
N872        C873   1.357       .  A
C873        N874   1.353       .  A
C873       C1035   1.483       .  S
N874        C875   1.356       .  A
C875        N876   1.363       .  A
C875       C1022   1.489       .  S
C877        N878   1.358       .  A
C877        N882   1.359       .  A
C877       C1005   1.485       .  S
N878        C879   1.360       .  A
C879        N880   1.357       .  A
C879       C1012   1.475       .  S
N880        C881   1.358       .  A
C881        N882   1.361       .  A
C881        C995   1.492       .  S
C883        N884   1.362       .  A
C883        N888   1.360       .  A
C883        C972   1.485       .  S
N884        C885   1.362       .  A
C885        N886   1.357       .  A
C885        C982   1.484       .  S
N886        C887   1.357       .  A
C887        N888   1.359       .  A
C887        C962   1.494       .  S
C889       C1072   1.480       .  S
C889        O904   1.262       .  A
C889        O891   1.261       .  A
Tb890      O1344   2.357       .  S
Tb890      O1345   2.345   1_545  S
Tb890      O1328   2.347   1_545  S
Tb890       O894   2.347       .  S
Tb890       O911   2.364       .  S
O891       Tb895   2.353       .  S
O892        C903   1.262       .  A
O892      Tb1327   2.361       .  S
C893        C992   1.483       .  S
C893        O898   1.270       .  A
C893        O914   1.271       .  A
O894        C910   1.260       .  A
Tb895      O1324   2.361   1_545  S
Tb895      O1115   2.339   1_544  S
Tb895       O904   2.364       .  S
Tb895       O898   2.344       .  S
Tb895      O1337   2.343   1_545  S
Tb895       O907   2.339       .  S
Tb895      O1329   2.339   1_545  S
O896       C1334   1.261       .  A
O896      Tb1322   2.351       .  S
O897      Tb1327   2.338       .  S
O899        C909   1.268   1_565  A
O899      Tb1111   2.332   1_565  S
C900       C1065   1.487       .  S
C900        O913   1.269       .  A
O901        C908   1.271       .  A
C902       C1434   1.480       .  S
C902       O1328   1.260       .  A
C902        O911   1.261   1_565  A
C903       C1015   1.472       .  S
C903        O905   1.260       .  A
O905      Tb1327   2.348       .  S
O906       C1125   1.269   1_554  A
O907        C908   1.270       .  A
C908        C955   1.486       .  S
C909        C945   1.483       .  S
C909       O1122   1.271       .  A
C910       C1052   1.477       .  S
C910       O1344   1.260       .  A
O912       C1342   1.261       .  A
O912      Tb1322   2.361       .  S
O913      Tb1322   2.343       .  S
C915       C1045   1.481       .  S
C915        O930   1.260       .  A
C915        O917   1.260       .  A
Tb916      O1370   2.366       .  S
Tb916      O1371   2.338   1_545  S
Tb916      O1354   2.355   1_545  S
Tb916       O920   2.338       .  S
Tb916       O937   2.368       .  S
O917       Tb921   2.352       .  S
O918        C929   1.260       .  A
O918      Tb1353   2.356       .  S
C919        C965   1.484       .  S
C919        O924   1.271       .  A
C919        O940   1.273       .  A
O920        C936   1.260       .  A
Tb921      O1350   2.361       .  S
Tb921       O925   2.349       .  S
Tb921       O930   2.368       .  S
Tb921       O924   2.343       .  S
Tb921      O1363   2.352   1_545  S
Tb921       O933   2.352       .  S
Tb921      O1355   2.347   1_545  S
O922       C1360   1.260       .  A
O922      Tb1348   2.356       .  S
O923      Tb1353   2.345       .  S
O925        C935   1.270       .  A
C926       C1032   1.487       .  S
C926        O939   1.267       .  A
O927        C934   1.271       .  A
C928       C1407   1.486       .  S
C928       O1354   1.260       .  A
C928        O937   1.261   1_565  A
C929        C985   1.481       .  S
C929        O931   1.262       .  A
O931      Tb1353   2.354       .  S
O932        C935   1.270       .  A
O933        C934   1.274       .  A
C934        C942   1.486       .  S
C935        C952   1.485       .  S
C936       C1025   1.476       .  S
C936       O1370   1.262       .  A
O938       C1368   1.262       .  A
O938      Tb1348   2.365       .  S
O939      Tb1348   2.340       .  S
C941       C1374   1.413       .  A
C941        C946   1.397       .  A
C942       C1373   1.411       .  A
C942        C943   1.411       .  A
C943        C944   1.396       .  A
C943        F950   1.358       .  S
C944        C945   1.408       .  A
C944        F949   1.358       .  S
C945       C1378   1.408       .  A
C946       C1377   1.409       .  A
C951        C952   1.411       .  A
C951        C956   1.399       .  A
C951        F958   1.358       .  S
C953        C954   1.396       .  A
C953        F960   1.358       .  S
C954        F959   1.358       .  S
C955        C956   1.409       .  A
C956        F957   1.358       .  S
C961        C962   1.413       .  A
C961        C966   1.397       .  A
C961        F968   1.357       .  S
C962        C963   1.412       .  A
C963        C964   1.400       .  A
C963        F970   1.358       .  S
C964        C965   1.406       .  A
C964        F969   1.356       .  S
C965        C966   1.406       .  A
C966        F967   1.357       .  S
C971        C972   1.407       .  A
C971        C976   1.399       .  A
C971        F978   1.358       .  S
C972        C973   1.407       .  A
C973        C974   1.405       .  A
C973        F980   1.358       .  S
C974        C975   1.410       .  A
C974       F1411   1.357       .  S
C975       C1360   1.488       .  S
C975        C976   1.409       .  A
C976        F977   1.357       .  S
F979       C1406   1.357   1_545  S
C981        C982   1.406       .  A
C981        C986   1.402       .  A
C981        F988   1.358       .  S
C982        C983   1.410       .  A
C983        C984   1.397       .  A
C983        F990   1.358       .  S
C984        C985   1.405       .  A
C984        F989   1.358       .  S
C985        C986   1.410       .  A
C986        F987   1.358       .  S
C991        C992   1.406       .  A
C991        C996   1.401       .  A
C991        F998   1.356       .  S
C992        C993   1.406       .  A
C993        C994   1.395       .  A
C993       F1000   1.357       .  S
C994        C995   1.411       .  A
C994        F999   1.357       .  S
C995        C996   1.414       .  A
C996        F997   1.358       .  S
C1001      C1002   1.406       .  A
C1001      C1006   1.399       .  A
C1001      F1008   1.358       .  S
C1002      C1334   1.481       .  S
C1002      C1435   1.408       .  A
C1003      C1434   1.409       .  A
C1003      C1436   1.402       .  A
C1003      F1010   1.358   1_565  S
C1004      C1435   1.402       .  A
C1004      C1005   1.408       .  A
C1004      F1441   1.358       .  S
C1005      C1006   1.409       .  A
C1006      F1007   1.357       .  S
F1009      C1436   1.358       .  S
C1011      C1012   1.405       .  A
C1011      C1016   1.396       .  A
C1011      F1018   1.358       .  S
C1012      C1013   1.408       .  A
C1013      C1014   1.402       .  A
C1013      F1020   1.358       .  S
C1014      C1015   1.405       .  A
C1014      F1019   1.358       .  S
C1015      C1016   1.405       .  A
C1016      F1017   1.358       .  S
C1021      C1022   1.411       .  A
C1021      C1026   1.403       .  A
C1021      F1028   1.357       .  S
C1022      C1023   1.413       .  A
C1023      C1024   1.394       .  A
C1023      F1030   1.358       .  S
C1024      C1025   1.402       .  A
C1024      F1029   1.358       .  S
C1025      C1026   1.407       .  A
C1026      F1459   1.358       .  S
F1027      C1458   1.358       .  S
C1031      C1032   1.410       .  A
C1031      C1036   1.401       .  A
C1031      F1038   1.358       .  S
C1032      C1033   1.412       .  A
C1033      C1034   1.393       .  A
C1033      F1040   1.357       .  S
C1034      C1035   1.405       .  A
C1034      F1039   1.357       .  S
C1035      C1036   1.410       .  A
C1036      F1037   1.358       .  S
C1041      C1042   1.413       .  A
C1041      C1046   1.403       .  A
C1041      F1048   1.357       .  S
C1042      C1043   1.415       .  A
C1043      C1044   1.398       .  A
C1043      F1050   1.357       .  S
C1044      C1045   1.403       .  A
C1044      F1049   1.358       .  S
C1045      C1046   1.407       .  A
C1046      F1047   1.358       .  S
C1051      C1052   1.404       .  A
C1051      C1056   1.394       .  A
C1051      F1058   1.357       .  S
C1052      C1269   1.408   1_554  A
C1053      C1268   1.410       .  A
C1053      C1054   1.402       .  A
C1053      F1492   1.357       .  S
C1054      C1271   1.403       .  A
C1054      F1059   1.357       .  S
C1055      C1270   1.406   1_554  A
C1055      C1056   1.410       .  A
C1056      F1057   1.356       .  S
F1060      C1485   1.358       .  S
C1061      C1062   1.406   1_556  A
C1061      C1066   1.404   1_556  A
C1061      F1284   1.358       .  S
C1062      C1063   1.406       .  A
C1063      C1064   1.390       .  A
C1063      F1070   1.356       .  S
C1064      C1065   1.410       .  A
C1064      F1069   1.359       .  S
C1065      C1066   1.412       .  A
C1066      F1067   1.357   1_554  S
F1068      C1277   1.358       .  S
C1071      C1072   1.408   1_556  A
C1071      C1292   1.403       .  A
C1071      F1294   1.357       .  S
C1072      C1073   1.408       .  A
C1073      C1074   1.399       .  A
C1073      F1080   1.358       .  S
C1074      C1075   1.403       .  A
C1074      F1079   1.358       .  S
C1075      C1292   1.403   1_554  A
C1076      C1287   1.404       .  A
C1076      C1291   1.406       .  A
C1076      F1077   1.358       .  S
F1078      C1287   1.358       .  S
C1081      N1082   1.363       .  A
C1081      N1086   1.361       .  A
C1081      C1291   1.474       .  S
N1082      C1083   1.362       .  A
C1083      N1084   1.354       .  A
C1083      C1278   1.490       .  S
N1084      C1085   1.351       .  A
C1085      N1086   1.357       .  A
C1085      C1271   1.473       .  S
C1087      N1088   1.359       .  A
C1087      N1092   1.364       .  A
C1087      C1258   1.495       .  S
N1088      C1089   1.357       .  A
C1089      N1090   1.354       .  A
C1089      C1251   1.481       .  S
N1090      C1091   1.358       .  A
C1091      N1092   1.363       .  A
C1091      C1238   1.488       .  S
C1093      N1094   1.359       .  A
C1093      N1098   1.359       .  A
C1093      C1221   1.486       .  S
N1094      C1095   1.357       .  A
C1095      N1096   1.356       .  A
C1095      C1228   1.469       .  S
N1096      C1097   1.358       .  A
C1097      N1098   1.359       .  A
C1097      C1211   1.489       .  S
C1099      N1100   1.361       .  A
C1099      N1104   1.359       .  A
C1099      C1188   1.483       .  S
N1100      C1101   1.361       .  A
C1101      N1102   1.356       .  A
C1101      C1198   1.483       .  S
N1102      C1103   1.357       .  A
C1103      N1104   1.358       .  A
C1103      C1178   1.492       .  S
C1105      C1288   1.477       .  S
C1105      O1120   1.262       .  A
C1105      O1107   1.262       .  A
Tb1106     O1560   2.363       .  S
Tb1106     O1561   2.347   1_545  S
Tb1106     O1544   2.356   1_545  S
Tb1106     O1110   2.341       .  S
Tb1106     O1127   2.353       .  S
O1107     Tb1111   2.346       .  S
O1108      C1119   1.260       .  A
O1108     Tb1543   2.356       .  S
C1109      C1208   1.484       .  S
C1109      O1114   1.268       .  A
C1109      O1130   1.268       .  A
O1110      C1126   1.258       .  A
Tb1111     O1540   2.346   1_545  S
Tb1111     O1120   2.361       .  S
Tb1111     O1114   2.341       .  S
Tb1111     O1553   2.354   1_545  S
Tb1111     O1123   2.339       .  S
Tb1111     O1545   2.341   1_545  S
O1112      C1550   1.260       .  A
O1112     Tb1538   2.347       .  S
O1113     Tb1543   2.351       .  S
O1115      C1125   1.269   1_565  A
C1116      C1281   1.487       .  S
C1116      O1129   1.269       .  A
O1117      C1124   1.272       .  A
C1118      C1650   1.478       .  S
C1118      O1544   1.260       .  A
C1118      O1127   1.258   1_565  A
C1119      C1231   1.469       .  S
C1119      O1121   1.260       .  A
O1121     Tb1543   2.344       .  S
O1123      C1124   1.272       .  A
C1124      C1171   1.477       .  S
C1125      C1161   1.489       .  S
C1126      C1268   1.478       .  S
C1126      O1560   1.261       .  A
O1128      C1558   1.260       .  A
O1128     Tb1538   2.364       .  S
O1129     Tb1538   2.339       .  S
C1131      C1261   1.480       .  S
C1131      O1146   1.259       .  A
C1131      O1133   1.260       .  A
Tb1132     O1586   2.370       .  S
Tb1132     O1587   2.341   1_545  S
Tb1132     O1570   2.352   1_545  S
Tb1132     O1136   2.347       .  S
Tb1132     O1153   2.358       .  S
O1133     Tb1137   2.355       .  S
O1134      C1145   1.260       .  A
O1134     Tb1569   2.359       .  S
C1135      C1181   1.483       .  S
C1135      O1140   1.270       .  A
C1135      O1156   1.273       .  A
O1136      C1152   1.260       .  A
Tb1137     O1566   2.356       .  S
Tb1137     O1141   2.339       .  S
Tb1137     O1146   2.362       .  S
Tb1137     O1140   2.340       .  S
Tb1137     O1579   2.351   1_545  S
Tb1137     O1149   2.355       .  S
Tb1137     O1571   2.341   1_545  S
O1138      C1576   1.261       .  A
O1138     Tb1564   2.354       .  S
O1139     Tb1569   2.342       .  S
O1141      C1151   1.269       .  A
C1142      C1248   1.489       .  S
C1142      O1155   1.268       .  A
O1143      C1150   1.272       .  A
C1144      C1623   1.479       .  S
C1144      O1570   1.261       .  A
C1144      O1153   1.262   1_565  A
C1145      C1201   1.479       .  S
C1145      O1147   1.260       .  A
O1147     Tb1569   2.352       .  S
O1148      C1151   1.271       .  A
O1149      C1150   1.274       .  A
C1150      C1158   1.490       .  S
C1151      C1168   1.475       .  S
C1152      C1241   1.482       .  S
C1152      O1586   1.262       .  A
O1154      C1584   1.261       .  A
O1154     Tb1564   2.359       .  S
O1155     Tb1564   2.344       .  S
C1157      C1590   1.411       .  A
C1157      C1162   1.396       .  A
C1158      C1589   1.411       .  A
C1158      C1159   1.410       .  A
C1159      C1160   1.398       .  A
C1159      F1166   1.358       .  S
C1160      C1161   1.412       .  A
C1160      F1165   1.358       .  S
C1161      C1594   1.409       .  A
C1162      C1593   1.408       .  A
C1167      C1168   1.408       .  A
C1167      C1172   1.397       .  A
C1167      F1174   1.358       .  S
C1169      C1170   1.396       .  A
C1169      F1176   1.357       .  S
C1170      F1175   1.358       .  S
C1171      C1172   1.406       .  A
C1172      F1173   1.358       .  S
C1177      C1178   1.412       .  A
C1177      C1182   1.396       .  A
C1177      F1184   1.358       .  S
C1178      C1179   1.412       .  A
C1179      C1180   1.400       .  A
C1179      F1186   1.358       .  S
C1180      C1181   1.407       .  A
C1180      F1185   1.355       .  S
C1181      C1182   1.405       .  A
C1182      F1183   1.356       .  S
C1187      C1188   1.408       .  A
C1187      C1192   1.397       .  A
C1187      F1194   1.358       .  S
C1188      C1189   1.408       .  A
C1189      C1190   1.402       .  A
C1189      F1196   1.358       .  S
C1190      C1191   1.408       .  A
C1190      F1627   1.358       .  S
C1191      C1576   1.482       .  S
C1191      C1192   1.406       .  A
C1192      F1193   1.356       .  S
F1195      C1622   1.358   1_545  S
C1197      C1198   1.406       .  A
C1197      C1202   1.400       .  A
C1197      F1204   1.358       .  S
C1198      C1199   1.410       .  A
C1199      C1200   1.397       .  A
C1199      F1206   1.358       .  S
C1200      C1201   1.405       .  A
C1200      F1205   1.358       .  S
C1201      C1202   1.408       .  A
C1202      F1203   1.358       .  S
C1207      C1208   1.407       .  A
C1207      C1212   1.401       .  A
C1207      F1214   1.356       .  S
C1208      C1209   1.407       .  A
C1209      C1210   1.394       .  A
C1209      F1216   1.357       .  S
C1210      C1211   1.410       .  A
C1210      F1215   1.356       .  S
C1211      C1212   1.412       .  A
C1212      F1213   1.358       .  S
C1217      C1218   1.404       .  A
C1217      C1222   1.396       .  A
C1217      F1224   1.358       .  S
C1218      C1550   1.477       .  S
C1218      C1651   1.406       .  A
C1219      C1650   1.409       .  A
C1219      C1652   1.399       .  A
C1219      F1226   1.358   1_565  S
C1220      C1651   1.400       .  A
C1220      C1221   1.410       .  A
C1220      F1657   1.358       .  S
C1221      C1222   1.410       .  A
C1222      F1223   1.356       .  S
F1225      C1652   1.358       .  S
C1227      C1228   1.403       .  A
C1227      C1232   1.395       .  A
C1227      F1234   1.358       .  S
C1228      C1229   1.405       .  A
C1229      C1230   1.400       .  A
C1229      F1236   1.358       .  S
C1230      C1231   1.405       .  A
C1230      F1235   1.358       .  S
C1231      C1232   1.405       .  A
C1232      F1233   1.358       .  S
C1237      C1238   1.410       .  A
C1237      C1242   1.406       .  A
C1237      F1244   1.358       .  S
C1238      C1239   1.411       .  A
C1239      C1240   1.395       .  A
C1239      F1246   1.358       .  S
C1240      C1241   1.404       .  A
C1240      F1245   1.357       .  S
C1241      C1242   1.409       .  A
C1242      F1675   1.358       .  S
F1243      C1674   1.358       .  S
C1247      C1248   1.411       .  A
C1247      C1252   1.402       .  A
C1247      F1254   1.358       .  S
C1248      C1249   1.411       .  A
C1249      C1250   1.394       .  A
C1249      F1256   1.356       .  S
C1250      C1251   1.405       .  A
C1250      F1255   1.358       .  S
C1251      C1252   1.408       .  A
C1252      F1253   1.358       .  S
C1257      C1258   1.411       .  A
C1257      C1262   1.402       .  A
C1257      F1264   1.357       .  S
C1258      C1259   1.415       .  A
C1259      C1260   1.398       .  A
C1259      F1266   1.357       .  S
C1260      C1261   1.403       .  A
C1260      F1265   1.358       .  S
C1261      C1262   1.407       .  A
C1262      F1263   1.358       .  S
C1267      C1268   1.407       .  A
C1267      C1272   1.392       .  A
C1267      F1274   1.357       .  S
C1269      C1270   1.401       .  A
C1269      F1708   1.357       .  S
C1270      F1275   1.357       .  S
C1271      C1272   1.405       .  A
C1272      F1273   1.358       .  S
F1276      C1701   1.358       .  S
C1277      C1278   1.409       .  A
C1277      C1282   1.403       .  A
C1278      C1279   1.413       .  A
C1279      C1280   1.393       .  A
C1279      F1286   1.358       .  S
C1280      C1281   1.406       .  A
C1280      F1285   1.358       .  S
C1281      C1282   1.411       .  A
C1282      F1283   1.357       .  S
C1287      C1288   1.408       .  A
C1288      C1289   1.406       .  A
C1289      C1290   1.395       .  A
C1289      F1296   1.358       .  S
C1290      C1291   1.404       .  A
C1290      F1295   1.358       .  S
C1292      F1293   1.357       .  S
C1297      N1298   1.358       .  A
C1297      N1302   1.360       .  A
C1297      C1507   1.470       .  S
N1298      C1299   1.358       .  A
C1299      N1300   1.356       .  A
C1299      C1494   1.484       .  S
N1300      C1301   1.355       .  A
C1301      N1302   1.359       .  A
C1301      C1487   1.479       .  S
C1303      N1304   1.359       .  A
C1303      N1308   1.364       .  A
C1303      C1474   1.493       .  S
N1304      C1305   1.356       .  A
C1305      N1306   1.354       .  A
C1305      C1467   1.484       .  S
N1306      C1307   1.357       .  A
C1307      N1308   1.365       .  A
C1307      C1454   1.488       .  S
C1309      N1310   1.356       .  A
C1309      N1314   1.357       .  A
C1309      C1437   1.478       .  S
N1310      C1311   1.359       .  A
C1311      N1312   1.360       .  A
C1311      C1444   1.474       .  S
N1312      C1313   1.361       .  A
C1313      N1314   1.359       .  A
C1313      C1427   1.495       .  S
C1315      N1316   1.362       .  A
C1315      N1320   1.359       .  A
C1315      C1404   1.483       .  S
N1316      C1317   1.361       .  A
C1317      N1318   1.357       .  A
C1317      C1414   1.484       .  S
N1318      C1319   1.356       .  A
C1319      N1320   1.359       .  A
C1319      C1394   1.492       .  S
C1321      C1504   1.478       .  S
C1321      O1336   1.262       .  A
C1321      O1323   1.261       .  A
Tb1322     O1326   2.338       .  S
Tb1322     O1343   2.362       .  S
O1323     Tb1327   2.348       .  S
O1324      C1335   1.262       .  A
C1325      C1424   1.487       .  S
C1325      O1330   1.270       .  A
C1325      O1346   1.272       .  A
O1326      C1342   1.260       .  A
Tb1327     O1547   2.332   1_554  S
Tb1327     O1336   2.362       .  S
Tb1327     O1330   2.343       .  S
Tb1327     O1339   2.339       .  S
O1331      C1341   1.267       .  A
O1331     Tb1543   2.328       .  S
C1332      C1497   1.487       .  S
C1332      O1345   1.270       .  A
O1333      C1340   1.269       .  A
C1334      O1343   1.261       .  A
C1335      C1447   1.472       .  S
C1335      O1337   1.260       .  A
O1338      C1557   1.269   1_554  A
O1339      C1340   1.271       .  A
C1340      C1387   1.482       .  S
C1341      C1377   1.485       .  S
C1341      O1554   1.271       .  A
C1342      C1484   1.474       .  S
C1347      C1477   1.484       .  S
C1347      O1362   1.261       .  A
C1347      O1349   1.259       .  A
Tb1348     O1352   2.341       .  S
Tb1348     O1369   2.372       .  S
O1349     Tb1353   2.347       .  S
O1350      C1361   1.261   1_545  A
C1351      C1397   1.486       .  S
C1351      O1356   1.271       .  A
C1351      O1372   1.273       .  A
O1352      C1368   1.260       .  A
Tb1353     O1357   2.344       .  S
Tb1353     O1362   2.375       .  S
Tb1353     O1356   2.345       .  S
Tb1353     O1365   2.349       .  S
O1357      C1367   1.269       .  A
C1358      C1464   1.488       .  S
C1358      O1371   1.267       .  A
O1359      C1366   1.273       .  A
C1360      O1369   1.262       .  A
C1361      C1417   1.482       .  S
C1361      O1363   1.262       .  A
O1364      C1367   1.270       .  A
O1365      C1366   1.273       .  A
C1366      C1374   1.489       .  S
C1367      C1384   1.484       .  S
C1368      C1457   1.477       .  S
C1373      C1378   1.396       .  A
C1374      C1375   1.410       .  A
C1375      C1376   1.397       .  A
C1375      F1382   1.358       .  S
C1376      C1377   1.409       .  A
C1376      F1381   1.358       .  S
C1383      C1384   1.411       .  A
C1383      C1388   1.397       .  A
C1383      F1390   1.358       .  S
C1385      C1386   1.397       .  A
C1385      F1392   1.358       .  S
C1386      F1391   1.359       .  S
C1387      C1388   1.406       .  A
C1388      F1389   1.358       .  S
C1393      C1394   1.413       .  A
C1393      C1398   1.397       .  A
C1393      F1400   1.357       .  S
C1394      C1395   1.411       .  A
C1395      C1396   1.400       .  A
C1395      F1402   1.358       .  S
C1396      C1397   1.406       .  A
C1396      F1401   1.355       .  S
C1397      C1398   1.406       .  A
C1398      F1399   1.357       .  S
C1403      C1404   1.407       .  A
C1403      C1408   1.399       .  A
C1403      F1410   1.358       .  S
C1404      C1405   1.406       .  A
C1405      C1406   1.403       .  A
C1405      F1412   1.358       .  S
C1406      C1407   1.410       .  A
C1407      C1408   1.408       .  A
C1408      F1409   1.358       .  S
C1413      C1414   1.407       .  A
C1413      C1418   1.403       .  A
C1413      F1420   1.358       .  S
C1414      C1415   1.410       .  A
C1415      C1416   1.396       .  A
C1415      F1422   1.358       .  S
C1416      C1417   1.406       .  A
C1416      F1421   1.358       .  S
C1417      C1418   1.410       .  A
C1418      F1419   1.358   1_565  S
C1423      C1424   1.407       .  A
C1423      C1428   1.402       .  A
C1423      F1430   1.356       .  S
C1424      C1425   1.408       .  A
C1425      C1426   1.396       .  A
C1425      F1432   1.358       .  S
C1426      C1427   1.412       .  A
C1426      F1431   1.358       .  S
C1427      C1428   1.413       .  A
C1428      F1429   1.358       .  S
C1433      C1434   1.407       .  A
C1433      C1438   1.396       .  A
C1433      F1440   1.358       .  S
C1435      F1442   1.358       .  S
C1436      C1437   1.406       .  A
C1437      C1438   1.406       .  A
C1438      F1439   1.358       .  S
C1443      C1444   1.405       .  A
C1443      C1448   1.394       .  A
C1443      F1450   1.358       .  S
C1444      C1445   1.407       .  A
C1445      C1446   1.403       .  A
C1445      F1452   1.358       .  S
C1446      C1447   1.406       .  A
C1446      F1451   1.358       .  S
C1447      C1448   1.405       .  A
C1448      F1449   1.359       .  S
C1453      C1454   1.410       .  A
C1453      C1458   1.403       .  A
C1453      F1460   1.357       .  S
C1454      C1455   1.413       .  A
C1455      C1456   1.395       .  A
C1455      F1462   1.358       .  S
C1456      C1457   1.403       .  A
C1456      F1461   1.358       .  S
C1457      C1458   1.407       .  A
C1463      C1464   1.410       .  A
C1463      C1468   1.402       .  A
C1463      F1470   1.358       .  S
C1464      C1465   1.412       .  A
C1465      C1466   1.393       .  A
C1465      F1472   1.358       .  S
C1466      C1467   1.406       .  A
C1466      F1471   1.356       .  S
C1467      C1468   1.409       .  A
C1468      F1469   1.358       .  S
C1473      C1474   1.411       .  A
C1473      C1478   1.406       .  A
C1473      F1480   1.357       .  S
C1474      C1475   1.411       .  A
C1475      C1476   1.394       .  A
C1475      F1482   1.356       .  S
C1476      C1477   1.404       .  A
C1476      F1481   1.357       .  S
C1477      C1478   1.409       .  A
C1478      F1479   1.358       .  S
C1483      C1484   1.402       .  A
C1483      C1488   1.392       .  A
C1483      F1490   1.357       .  S
C1484      C1701   1.408   1_554  A
C1485      C1700   1.408       .  A
C1485      C1486   1.402       .  A
C1486      C1703   1.410       .  A
C1486      F1491   1.358       .  S
C1487      C1702   1.407   1_554  A
C1487      C1488   1.408       .  A
C1488      F1489   1.356       .  S
C1493      C1494   1.408   1_556  A
C1493      C1498   1.402   1_556  A
C1493      F1716   1.358       .  S
C1494      C1495   1.408       .  A
C1495      C1496   1.390       .  A
C1495      F1502   1.356       .  S
C1496      C1497   1.410       .  A
C1496      F1501   1.358       .  S
C1497      C1498   1.411       .  A
C1498      F1499   1.357   1_554  S
F1500      C1709   1.358       .  S
C1503      C1504   1.408   1_556  A
C1503      C1724   1.402       .  A
C1503      F1726   1.358       .  S
C1504      C1505   1.408       .  A
C1505      C1506   1.396       .  A
C1505      F1512   1.358       .  S
C1506      C1507   1.402       .  A
C1506      F1511   1.358       .  S
C1507      C1724   1.404   1_554  A
C1508      C1719   1.403       .  A
C1508      C1723   1.407       .  A
C1508      F1509   1.358       .  S
F1510      C1719   1.358       .  S
C1513      N1514   1.357       .  A
C1513      N1518   1.361       .  A
C1513      C1723   1.475       .  S
N1514      C1515   1.356       .  A
C1515      N1516   1.358       .  A
C1515      C1710   1.476       .  S
N1516      C1517   1.358       .  A
C1517      N1518   1.361       .  A
C1517      C1703   1.490       .  S
C1519      N1520   1.358       .  A
C1519      N1524   1.363       .  A
C1519      C1690   1.492       .  S
N1520      C1521   1.356       .  A
C1521      N1522   1.354       .  A
C1521      C1683   1.478       .  S
N1522      C1523   1.357       .  A
C1523      N1524   1.362       .  A
C1523      C1670   1.482       .  S
C1525      N1526   1.358       .  A
C1525      N1530   1.355       .  A
C1525      C1653   1.478       .  S
N1526      C1527   1.359       .  A
C1527      N1528   1.358       .  A
C1527      C1660   1.470       .  S
N1528      C1529   1.358       .  A
C1529      N1530   1.358       .  A
C1529      C1643   1.489       .  S
C1531      N1532   1.360       .  A
C1531      N1536   1.359       .  A
C1531      C1620   1.484       .  S
N1532      C1533   1.360       .  A
C1533      N1534   1.357       .  A
C1533      C1630   1.479       .  S
N1534      C1535   1.358       .  A
C1535      N1536   1.357       .  A
C1535      C1610   1.492       .  S
C1537      C1720   1.474       .  S
C1537      O1552   1.261       .  A
C1537      O1539   1.260       .  A
Tb1538     O1542   2.351       .  S
Tb1538     O1559   2.358       .  S
O1539     Tb1543   2.349       .  S
O1540      C1551   1.260       .  A
C1541      C1640   1.482       .  S
C1541      O1546   1.270       .  A
C1541      O1562   1.268       .  A
O1542      C1558   1.259       .  A
Tb1543     O1552   2.363       .  S
Tb1543     O1546   2.343       .  S
Tb1543     O1555   2.333       .  S
O1547      C1557   1.268       .  A
C1548      C1713   1.489       .  S
C1548      O1561   1.269       .  A
O1549      C1556   1.270       .  A
C1550      O1559   1.260       .  A
C1551      C1663   1.472       .  S
C1551      O1553   1.262       .  A
O1555      C1556   1.269       .  A
C1556      C1603   1.475       .  S
C1557      C1593   1.484       .  S
C1558      C1700   1.481       .  S
C1563      C1693   1.478       .  S
C1563      O1578   1.259       .  A
C1563      O1565   1.260       .  A
Tb1564     O1568   2.346       .  S
Tb1564     O1585   2.361       .  S
O1565     Tb1569   2.352       .  S
O1566      C1577   1.261   1_545  A
C1567      C1613   1.485       .  S
C1567      O1572   1.270       .  A
C1567      O1588   1.272       .  A
O1568      C1584   1.261       .  A
Tb1569     O1573   2.345       .  S
Tb1569     O1578   2.360       .  S
Tb1569     O1572   2.347       .  S
Tb1569     O1581   2.348       .  S
O1573      C1583   1.272       .  A
C1574      C1680   1.488       .  S
C1574      O1587   1.268       .  A
O1575      C1582   1.271       .  A
C1576      O1585   1.262       .  A
C1577      C1633   1.480       .  S
C1577      O1579   1.260       .  A
O1580      C1583   1.271       .  A
O1581      C1582   1.272       .  A
C1582      C1590   1.486       .  S
C1583      C1600   1.477       .  S
C1584      C1673   1.476       .  S
C1589      C1594   1.397       .  A
C1590      C1591   1.410       .  A
C1591      C1592   1.397       .  A
C1591      F1598   1.358       .  S
C1592      C1593   1.410       .  A
C1592      F1597   1.358       .  S
C1599      C1600   1.408       .  A
C1599      C1604   1.397       .  A
C1599      F1606   1.358       .  S
C1601      C1602   1.398       .  A
C1601      F1608   1.357       .  S
C1602      F1607   1.358       .  S
C1603      C1604   1.405       .  A
C1604      F1605   1.357       .  S
C1609      C1610   1.411       .  A
C1609      C1614   1.396       .  A
C1609      F1616   1.358       .  S
C1610      C1611   1.414       .  A
C1611      C1612   1.401       .  A
C1611      F1618   1.358       .  S
C1612      C1613   1.406       .  A
C1612      F1617   1.356       .  S
C1613      C1614   1.405       .  A
C1614      F1615   1.354       .  S
C1619      C1620   1.409       .  A
C1619      C1624   1.395       .  A
C1619      F1626   1.358       .  S
C1620      C1621   1.409       .  A
C1621      C1622   1.402       .  A
C1621      F1628   1.358   1_565  S
C1622      C1623   1.407       .  A
C1623      C1624   1.405       .  A
C1624      F1625   1.356       .  S
C1629      C1630   1.405       .  A
C1629      C1634   1.400       .  A
C1629      F1636   1.358       .  S
C1630      C1631   1.408       .  A
C1631      C1632   1.398       .  A
C1631      F1638   1.358       .  S
C1632      C1633   1.407       .  A
C1632      F1637   1.358       .  S
C1633      C1634   1.409       .  A
C1634      F1635   1.358   1_565  S
C1639      C1640   1.407       .  A
C1639      C1644   1.401       .  A
C1639      F1646   1.357       .  S
C1640      C1641   1.406       .  A
C1641      C1642   1.393       .  A
C1641      F1648   1.358       .  S
C1642      C1643   1.411       .  A
C1642      F1647   1.357       .  S
C1643      C1644   1.412       .  A
C1644      F1645   1.358       .  S
C1649      C1650   1.406       .  A
C1649      C1654   1.397       .  A
C1649      F1656   1.358       .  S
C1651      F1658   1.358       .  S
C1652      C1653   1.405       .  A
C1653      C1654   1.408       .  A
C1654      F1655   1.358       .  S
C1659      C1660   1.404       .  A
C1659      C1664   1.398       .  A
C1659      F1666   1.358       .  S
C1660      C1661   1.404       .  A
C1661      C1662   1.399       .  A
C1661      F1668   1.358       .  S
C1662      C1663   1.406       .  A
C1662      F1667   1.358       .  S
C1663      C1664   1.406       .  A
C1664      F1665   1.358       .  S
C1669      C1670   1.407       .  A
C1669      C1674   1.402       .  A
C1669      F1676   1.358       .  S
C1670      C1671   1.409       .  A
C1671      C1672   1.394       .  A
C1671      F1678   1.358       .  S
C1672      C1673   1.404       .  A
C1672      F1677   1.356       .  S
C1673      C1674   1.407       .  A
C1679      C1680   1.411       .  A
C1679      C1684   1.402       .  A
C1679      F1686   1.357       .  S
C1680      C1681   1.411       .  A
C1681      C1682   1.393       .  A
C1681      F1688   1.356       .  S
C1682      C1683   1.404       .  A
C1682      F1687   1.358       .  S
C1683      C1684   1.407       .  A
C1684      F1685   1.358       .  S
C1689      C1690   1.411       .  A
C1689      C1694   1.402       .  A
C1689      F1696   1.358       .  S
C1690      C1691   1.414       .  A
C1691      C1692   1.395       .  A
C1691      F1698   1.357       .  S
C1692      C1693   1.402       .  A
C1692      F1697   1.357       .  S
C1693      C1694   1.407       .  A
C1694      F1695   1.358       .  S
C1699      C1700   1.405       .  A
C1699      C1704   1.398       .  A
C1699      F1706   1.358       .  S
C1701      C1702   1.402       .  A
C1702      F1707   1.358       .  S
C1703      C1704   1.411       .  A
C1704      F1705   1.357       .  S
C1709      C1710   1.405       .  A
C1709      C1714   1.403       .  A
C1710      C1711   1.403       .  A
C1711      C1712   1.394       .  A
C1711      F1718   1.358       .  S
C1712      C1713   1.412       .  A
C1712      F1717   1.358       .  S
C1713      C1714   1.412       .  A
C1714      F1715   1.358       .  S
C1719      C1720   1.406       .  A
C1720      C1721   1.406       .  A
C1721      C1722   1.396       .  A
C1721      F1728   1.358       .  S
C1722      C1723   1.404       .  A
C1722      F1727   1.358       .  S
C1724      F1725   1.358       .  S
