geometry optimzed in LAMMPS
_audit_creation_date              2020-12-01 
_audit_creation_method            'lammps2cif' 
_symmetry_space_group_name_H-M    'P1' 
_symmetry_Int_Tables_number       1 
_symmetry_cell_setting            triclinic 
loop_ 
_symmetry_equiv_pos_as_xyz 
  x,y,z 
_cell_length_a                    34.84116036 
_cell_length_b                    35.12904346394378 
_cell_length_c                    35.73015670994801 
_cell_angle_alpha                 90.84844150911316 
_cell_angle_beta                  91.80029878939142 
_cell_angle_gamma                 90.10646288940254 
loop_ 
_atom_site_label 
_atom_site_type_symbol 
_atom_site_fract_x 
_atom_site_fract_y 
_atom_site_fract_z 
_atom_site_charge 
O1          O  0.49211584  0.50956223  0.90617310    -0.79900
O2          O  0.55869270  0.51847366  0.06390346    -0.79900
O3          O  0.43301733  0.52863762  0.00662368    -0.79900
O4          O  0.57867086  0.55438028  0.94516405    -0.79900
O5          O  0.48749320  0.53828354  0.03896140    -0.80000
O6          O  0.56929870  0.50774603  0.90378285    -0.79900
O7          O  0.57115652  0.55892406  0.02104420    -0.79900
O8          O  0.48313926  0.54999387  0.95302108    -0.79900
C9          C  0.48090047  0.54207816  0.91825725     1.09800
C10         C  0.57080029  0.55095565  0.05521240     1.09700
C11         C  0.45167606  0.54634423  0.03256693     1.09800
C12         C  0.58051957  0.54144028  0.91208964     1.09700
O13         O  0.57178043  0.43740412  0.94470465    -0.79900
O14         O  0.50001841  0.47239860  0.07602295    -0.80000
O15         O  0.44842544  0.47672410  0.95011589    -0.79900
O16         O  0.60534950  0.48174024  0.02684431    -0.79900
O17         O  0.55435496  0.44464231  0.02982615    -0.79900
O18         O  0.49386865  0.43549909  0.94481152    -0.79900
O19         O  0.61578533  0.48159110  0.95228871    -0.79900
O20         O  0.46787076  0.46105368  0.02274679    -0.79900
Co21       Co  0.53167120  0.47294166  0.92795692     1.51500
Co22       Co  0.52086093  0.48937851  0.03129442     1.51700
Co23       Co  0.47922930  0.50780050  0.98829628     1.51600
Co24       Co  0.58914389  0.51890036  0.98626147     1.51500
O25         O  0.53488064  0.49796630  0.97882491    -1.41800
C26         C  0.60621558  0.44795930  0.94218778     1.09700
C27         C  0.47375871  0.45454067  0.05806062     1.09800
C28         C  0.45917736  0.44409980  0.93921004     1.09800
C29         C  0.58997011  0.45015553  0.03576176     1.09700
O30         O  0.53685163  0.92281796  0.44986113    -0.79900
O31         O  0.53556449  0.08054054  0.51847089    -0.79900
O32         O  0.54568406  0.02770650  0.39436410    -0.79900
O33         O  0.58279637  0.96111535  0.53351485    -0.79900
O34         O  0.55442278  0.05996236  0.44749782    -0.80000
O35         O  0.53915139  0.91618820  0.52482613    -0.79900
O36         O  0.58004105  0.03878875  0.52801378    -0.79900
O37         O  0.57392337  0.97308523  0.44235581    -0.79900
C38         C  0.56858530  0.93739077  0.43996974     1.09800
C39         C  0.56883731  0.07262583  0.53108064     1.09700
C40         C  0.56086535  0.05569675  0.41215958     1.09800
C41         C  0.57332037  0.92632874  0.53425012     1.09700
O42         O  0.46444457  0.95278486  0.52912220    -0.79900
O43         O  0.48581323  0.09217912  0.46041287    -0.80000
O44         O  0.49873646  0.96694319  0.40834702    -0.79900
O45         O  0.50422165  0.03780643  0.56311064    -0.79900
O46         O  0.46403378  0.04200485  0.51415530    -0.79900
O47         O  0.45955401  0.95611651  0.45304706    -0.79900
O48         O  0.51106735  0.96224689  0.57109925    -0.79900
O49         O  0.47818289  0.03808761  0.42863789    -0.79900
Co50       Co  0.50010892  0.94026955  0.48922787     1.51500
Co51       Co  0.50734491  0.04734280  0.48062958     1.51700
Co52       Co  0.52839067  0.00608926  0.43921250     1.51600
Co53       Co  0.54421329  0.99998693  0.54549085     1.51500
O54         O  0.52072774  0.99376456  0.49311654    -1.41800
C55         C  0.47672616  0.95252847  0.56271709     1.09700
C56         C  0.46972412  0.07362334  0.43366320     1.09800
C57         C  0.46690175  0.95408095  0.41879845     1.09800
C58         C  0.47115290  0.04639244  0.54901828     1.09700
O59         O  0.95470512  0.49423875  0.43889464    -0.79900
O60         O  0.11373159  0.48808444  0.50826695    -0.79900
O61         O  0.05749257  0.47180054  0.38522449    -0.79900
O62         O  0.98959580  0.45396775  0.52336184    -0.79900
O63         O  0.09143426  0.46674277  0.43832430    -0.80000
O64         O  0.94904072  0.50083691  0.51318893    -0.79900
O65         O  0.06791137  0.44817547  0.51890466    -0.79900
O66         O  0.00175446  0.45259679  0.43407986    -0.79900
C67         C  0.96627764  0.46055552  0.43096304     1.09800
C68         C  0.10319665  0.45607492  0.52000697     1.09700
C69         C  0.08450830  0.45616777  0.40386797     1.09800
C70         C  0.95597033  0.46731935  0.52456153     1.09700
O71         O  0.99278293  0.57076948  0.51496000    -0.79900
O72         O  0.12915387  0.53344535  0.45056057    -0.80000
O73         O  0.00153014  0.52344502  0.39685883    -0.79900
O74         O  0.07479923  0.52514207  0.55218093    -0.79900
O75         O  0.08099699  0.56229139  0.50321743    -0.79900
O76         O  0.99716653  0.56769724  0.43908165    -0.79900
O77         O  0.99852282  0.52783827  0.55874810    -0.79900
O78         O  0.07563004  0.54036418  0.41654824    -0.79900
Co79       Co  0.97658890  0.53315301  0.47646909     1.51500
Co80       Co  0.08260398  0.51681678  0.47021055     1.51700
Co81       Co  0.03895979  0.49445996  0.42911243     1.51600
Co82       Co  0.03267211  0.48875485  0.53496743     1.51500
O83         O  0.02813476  0.50823052  0.48214154    -1.41800
C84         C  0.99013135  0.56153859  0.54877041     1.09700
C85         C  0.11168827  0.54819108  0.42280923     1.09800
C86         C  0.99203700  0.55698567  0.40561200     1.09800
C87         C  0.08538671  0.55653045  0.53806408     1.09700
C88         C  0.76700554  0.30100483  0.28841130     0.80500
N89         N  0.75486626  0.31489603  0.25480263    -0.77800
C90         C  0.72521877  0.29863015  0.23490771     0.82900
N91         N  0.70679154  0.26852543  0.24932643    -0.77800
C92         C  0.71755670  0.25447902  0.28321724     0.83000
N93         N  0.74787855  0.27078931  0.30262426    -0.79500
C94         C  0.77840235  0.70565350  0.29144891     0.80500
N95         N  0.76258488  0.73544888  0.30993470    -0.77800
C96         C  0.72781772  0.74924214  0.29861378     0.82900
N97         N  0.70838729  0.73208195  0.26940669    -0.77800
C98         C  0.72351281  0.70173254  0.25101763     0.83000
N99         N  0.75865361  0.68887000  0.26229657    -0.79500
C100        C  0.72878432  0.31799910  0.72867492     0.80500
N101        N  0.75689293  0.33516287  0.70957160    -0.77800
C102        C  0.76691380  0.32158750  0.67555207     0.82900
N103        N  0.74798204  0.29093455  0.66054153    -0.77800
C104        C  0.71962536  0.27337685  0.67909881     0.83000
N105        N  0.71023015  0.28716213  0.71336740    -0.79500
C106        C  0.31631803  0.76687022  0.25846637     0.80500
N107        N  0.29040026  0.74566737  0.27676448    -0.77800
C108        C  0.27774431  0.71161338  0.26265082     0.82900
N109        N  0.29144761  0.69882548  0.22966280    -0.77800
C110        C  0.31747926  0.71934225  0.21084467     0.83000
N111        N  0.33023652  0.75315766  0.22570231    -0.79500
C112        C  0.32914660  0.70363582  0.73277257     0.80500
N113        N  0.29696815  0.69018265  0.71445781    -0.77800
C114        C  0.28086944  0.70937939  0.68518051     0.82900
N115        N  0.29699812  0.74238991  0.67422234    -0.77800
C116        C  0.32870146  0.75658444  0.69255490     0.83000
N117        N  0.34471497  0.73689709  0.72143442    -0.79500
C118        C  0.32366914  0.29360860  0.73291171     0.80500
N119        N  0.29533420  0.31150215  0.71297694    -0.77800
C120        C  0.28078650  0.29596777  0.68038604     0.82900
N121        N  0.29500794  0.26213343  0.66807191    -0.77800
C122        C  0.32336327  0.24407468  0.68772644     0.83000
N123        N  0.33816109  0.26036185  0.71972229    -0.79500
C124        C  0.72787157  0.68259152  0.71987067     0.80500
N125        N  0.76320983  0.67087608  0.71007771    -0.77800
C126        C  0.78299479  0.69022952  0.68434309     0.82900
N127        N  0.76706289  0.72149283  0.66808736    -0.77800
C128        C  0.73157810  0.73368628  0.67777363     0.83000
N129        N  0.71225220  0.71377488  0.70351771    -0.79500
C130        C  0.31259901  0.23954776  0.26548909     0.80500
N131        N  0.33244507  0.25921406  0.23988432    -0.77800
C132        C  0.31947043  0.29329331  0.22724553     0.82900
N133        N  0.28655646  0.30774663  0.24066775    -0.77800
C134        C  0.26626059  0.28864356  0.26611733     0.83000
N135        N  0.27964539  0.25470886  0.27852744    -0.79500
C136        C  0.19090942  0.42351402  0.57516545    -0.01800
C137        C  0.18273697  0.38469381  0.58056759     0.06800
C138        C  0.14969813  0.36856239  0.56339455    -0.07700
C139        C  0.12404089  0.39080645  0.54222873     0.04300
C140        C  0.13131898  0.43013064  0.53814839    -0.15000
C141        C  0.16534473  0.44578017  0.55403631    -0.08300
C142        C  0.20708631  0.36105308  0.60578647     0.05200
C143        C  0.20876100  0.36996316  0.64411878    -0.09400
C144        C  0.23123169  0.34860917  0.66922981     0.00200
C145        C  0.25326915  0.31761309  0.65590475     0.00100
C146        C  0.25051356  0.30823992  0.61738091    -0.13000
C147        C  0.22768806  0.32949392  0.59244536     0.00500
C148        C  0.22996221  0.35888511  0.70840589     0.39800
C149        C  0.22661493  0.31911574  0.55315758     0.36500
C150        C  0.22517384  0.44121038  0.59125450     0.36200
C151        C  0.09063430  0.37250693  0.52503783     0.37000
N152        N  0.22834834  0.36762246  0.73966636    -0.43800
N153        N  0.22558857  0.31084772  0.52166332    -0.44300
N154        N  0.06382081  0.35795538  0.51121900    -0.41600
N155        N  0.25257546  0.45555992  0.60407702    -0.43100
H156        H  0.17149136  0.47588796  0.55099092     0.13100
H157        H  0.14348272  0.33857742  0.56731983     0.09600
H158        H  0.19200685  0.39383786  0.65456691     0.10600
H159        H  0.26705536  0.28457244  0.60624964     0.16400
C160        C  0.18547256  0.66090232  0.66484451    -0.01800
C161        C  0.18508684  0.65728580  0.62546383     0.06800
C162        C  0.21518108  0.67293321  0.60559158    -0.07700
C163        C  0.24643060  0.69046787  0.62448468     0.04300
C164        C  0.24736131  0.69327504  0.66402505    -0.15000
C165        C  0.21647718  0.67885557  0.68378537    -0.08300
C166        C  0.15720716  0.63207495  0.60500631     0.05200
C167        C  0.12957087  0.64751975  0.58015987    -0.09400
C168        C  0.10503437  0.62361393  0.55844184     0.00200
C169        C  0.10790672  0.58370315  0.56188403     0.00100
C170        C  0.13512487  0.56855698  0.58731485    -0.13000
C171        C  0.16005247  0.59226295  0.60825693     0.00500
C172        C  0.07715491  0.64065212  0.53314053     0.39800
C173        C  0.18995127  0.57504184  0.63121671     0.36500
C174        C  0.15513234  0.64496628  0.68637642     0.36200
C175        C  0.27876426  0.70176856  0.60285524     0.37000
N176        N  0.05494075  0.65442108  0.51278336    -0.43800
N177        N  0.21415798  0.56145795  0.64943381    -0.44300
N178        N  0.30480940  0.71025696  0.58544530    -0.41600
N179        N  0.13091702  0.63193787  0.70359014    -0.43100
H180        H  0.21697095  0.68092663  0.71409457     0.13100
H181        H  0.21539708  0.66928483  0.57541575     0.09600
H182        H  0.12760959  0.67809998  0.57737044     0.10600
H183        H  0.13817812  0.53800623  0.58958061     0.16400
C184        C  0.19037207  0.61323279  0.39040833    -0.01800
C185        C  0.17730709  0.62261881  0.35404844     0.06800
C186        C  0.14168393  0.60883435  0.34051660    -0.07700
C187        C  0.11907209  0.58552775  0.36257005     0.04300
C188        C  0.13260533  0.57504368  0.39882009    -0.15000
C189        C  0.16822637  0.58953921  0.41227416    -0.08300
C190        C  0.20106156  0.64593497  0.32943684     0.05200
C191        C  0.22090816  0.62782939  0.30074998    -0.09400
C192        C  0.24595909  0.64825576  0.27852444     0.00200
C193        C  0.25068959  0.68811545  0.28430267     0.00100
C194        C  0.23001765  0.70600620  0.31285772    -0.13000
C195        C  0.20571154  0.68533500  0.33547338     0.00500
C196        C  0.26787346  0.62679727  0.25185345     0.39800
C197        C  0.18631909  0.70502795  0.36515920     0.36500
C198        C  0.22669089  0.62721702  0.40566955     0.36200
C199        C  0.08273164  0.57237401  0.34667422     0.37000
N200        N  0.28553201  0.60927473  0.23080377    -0.43800
N201        N  0.17100741  0.72074069  0.38913621    -0.44300
N202        N  0.05362752  0.56214765  0.33360106    -0.41600
N203        N  0.25567752  0.63865460  0.41794408    -0.43100
H204        H  0.17906447  0.58227561  0.44005344     0.13100
H205        H  0.13159932  0.61625109  0.31251024     0.09600
H206        H  0.21777135  0.59732246  0.29657881     0.10600
H207        H  0.23310119  0.73624966  0.31799860     0.16400
C208        C  0.19480768  0.31455126  0.33982654    -0.01800
C209        C  0.17752254  0.34741800  0.32468068     0.06800
C210        C  0.18698339  0.35877879  0.28866057    -0.07700
C211        C  0.21360134  0.33848531  0.26791004     0.04300
C212        C  0.23302675  0.30705961  0.28401318    -0.15000
C213        C  0.22245884  0.29490668  0.31963338    -0.08300
C214        C  0.15147456  0.37186531  0.34661866     0.05200
C215        C  0.16495721  0.38696649  0.38112437    -0.09400
C216        C  0.14337385  0.41346570  0.40101486     0.00200
C217        C  0.10724354  0.42547051  0.38623994     0.00100
C218        C  0.09331394  0.40927862  0.35220682    -0.13000
C219        C  0.11507355  0.38295902  0.33231700     0.00500
C220        C  0.16062116  0.42925752  0.43507626     0.39800
C221        C  0.09974794  0.36848972  0.29685706     0.36500
C222        C  0.18479852  0.30051448  0.37605817     0.36200
C223        C  0.21962061  0.35038519  0.23001359     0.37000
N224        N  0.17533494  0.44167730  0.46205829    -0.43800
N225        N  0.08775324  0.35728966  0.26819010    -0.44300
N226        N  0.22417749  0.35986535  0.19958469    -0.41600
N227        N  0.17679915  0.28929506  0.40509756    -0.43100
H228        H  0.23654482  0.27060996  0.33237894     0.13100
H229        H  0.17390168  0.38406990  0.27682571     0.09600
H230        H  0.19328668  0.37921316  0.39184135     0.10600
H231        H  0.06560600  0.41777948  0.34053148     0.16400
C232        C  0.94003496  0.59328794  0.63566541    -0.01800
C233        C  0.91937761  0.62509054  0.62249200     0.06800
C234        C  0.92843119  0.64061953  0.58797865    -0.07700
C235        C  0.95447440  0.62259872  0.56465757     0.04300
C236        C  0.97161597  0.58777513  0.57574117    -0.15000
C237        C  0.96577207  0.57485637  0.61226490    -0.08300
C238        C  0.88587837  0.64077355  0.64210019     0.05200
C239        C  0.88521014  0.67974269  0.65141834    -0.09400
C240        C  0.85215897  0.69662681  0.66554952     0.00200
C241        C  0.81925071  0.67419598  0.67095962     0.00100
C242        C  0.82025412  0.63511240  0.66246981    -0.13000
C243        C  0.85284572  0.61839185  0.64759806     0.00500
C244        C  0.85298154  0.73674692  0.67478031     0.39800
C245        C  0.85062585  0.57875156  0.63633488     0.36500
C246        C  0.93436671  0.57831606  0.67251618     0.36200
C247        C  0.96095169  0.63973551  0.52889212     0.37000
N248        N  0.85383183  0.76892315  0.68218014    -0.43800
N249        N  0.84848190  0.54693285  0.62765250    -0.44300
N250        N  0.96581730  0.65378920  0.50032563    -0.41600
N251        N  0.92978372  0.56618768  0.70198468    -0.43100
H252        H  0.97964511  0.54907768  0.62195385     0.13100
H253        H  0.91339648  0.66576398  0.57824095     0.09600
H254        H  0.91035628  0.69711686  0.64692695     0.10600
H255        H  0.79486111  0.61780174  0.66608179     0.16400
C256        C  0.81669902  0.35972175  0.59132099    -0.01800
C257        C  0.84668422  0.38151877  0.60794199     0.06800
C258        C  0.85099114  0.38355417  0.64701584    -0.07700
C259        C  0.82565673  0.36421922  0.66979687     0.04300
C260        C  0.79558064  0.34187318  0.65323040    -0.15000
C261        C  0.79179016  0.33978119  0.61390565    -0.08300
C262        C  0.87378125  0.40265005  0.58496561     0.05200
C263        C  0.86602826  0.44071318  0.57667884    -0.09400
C264        C  0.89168594  0.46218720  0.55619359     0.00200
C265        C  0.92573586  0.44512192  0.54304334     0.00100
C266        C  0.93278622  0.40656747  0.55092549    -0.13000
C267        C  0.90740413  0.38549903  0.57203836     0.00500
C268        C  0.88307341  0.50201584  0.55099369     0.39800
C269        C  0.91711447  0.34677398  0.58137506     0.36500
C270        C  0.81031310  0.35835770  0.55119642     0.36200
C271        C  0.83171416  0.36760962  0.70987820     0.37000
N272        N  0.87649794  0.53399678  0.54688148    -0.43800
N273        N  0.92507029  0.31585416  0.58915191    -0.44300
N274        N  0.83659450  0.37062111  0.74197818    -0.41600
N275        N  0.80496813  0.35754446  0.51906511    -0.43100
H276        H  0.76860773  0.32337358  0.60063224     0.13100
H277        H  0.87413831  0.40046361  0.65969337     0.09600
H278        H  0.84020979  0.45389947  0.58702570     0.10600
H279        H  0.95876529  0.39299640  0.54147448     0.16400
C280        C  0.87212688  0.41876553  0.39254025    -0.01800
C281        C  0.88328542  0.38297986  0.37846712     0.06800
C282        C  0.92136071  0.37109712  0.38418206    -0.07700
C283        C  0.94869194  0.39491979  0.40251110     0.04300
C284        C  0.93805748  0.43190607  0.41507394    -0.15000
C285        C  0.89928403  0.44277358  0.41050221    -0.08300
C286        C  0.85602602  0.35919661  0.35530065     0.05200
C287        C  0.85009229  0.36830873  0.31760252    -0.09400
C288        C  0.82228674  0.34934548  0.29507806     0.00200
C289        C  0.79917961  0.32030851  0.31038347     0.00100
C290        C  0.80628634  0.31054350  0.34816560    -0.13000
C291        C  0.83433026  0.32970045  0.37051998     0.00500
C292        C  0.81849202  0.36096367  0.25652228     0.39800
C293        C  0.83975943  0.31939327  0.40927394     0.36500
C294        C  0.83286265  0.43151833  0.38844068     0.36200
C295        C  0.98729503  0.38053843  0.40745916     0.37000
N296        N  0.81557106  0.37053493  0.22570420    -0.43800
N297        N  0.84426473  0.31121843  0.44035612    -0.44300
N298        N  0.01817159  0.36887141  0.41152700    -0.41600
N299        N  0.80130390  0.44146812  0.38521742    -0.43100
H300        H  0.89005456  0.47058422  0.42029617     0.13100
H301        H  0.92992599  0.34335846  0.37357947     0.09600
H302        H  0.86691767  0.39094959  0.30588227     0.10600
H303        H  0.78937793  0.28848876  0.36068971     0.16400
C304        C  0.94454272  0.64526990  0.36908534    -0.01800
C305        C  0.91509158  0.62964887  0.34571002     0.06800
C306        C  0.91558698  0.59070387  0.33661896    -0.07700
C307        C  0.94292741  0.56659296  0.35313572     0.04300
C308        C  0.97013690  0.58165442  0.37961251    -0.15000
C309        C  0.97162158  0.62121131  0.38601039    -0.08300
C310        C  0.88192706  0.65256419  0.33245086     0.05200
C311        C  0.87589653  0.65752139  0.29390918    -0.09400
C312        C  0.84301677  0.67593760  0.27998727     0.00200
C313        C  0.81529336  0.68944130  0.30492982     0.00100
C314        C  0.82194751  0.68546507  0.34363105    -0.13000
C315        C  0.85477560  0.66691372  0.35754049     0.00500
C316        C  0.83893924  0.68139603  0.24010950     0.38500
C317        C  0.85897371  0.66123700  0.39744176     0.36500
C318        C  0.94685715  0.68567033  0.37685391     0.36200
C319        C  0.94021338  0.52633612  0.34458027     0.37000
N320        N  0.83579213  0.68581178  0.20813088    -0.43800
N321        N  0.86234672  0.65672795  0.42940076    -0.44300
N322        N  0.93795139  0.49412714  0.33754220    -0.41600
N323        N  0.94876160  0.71805922  0.38303342    -0.43100
H324        H  0.99291990  0.63316682  0.40567541     0.13100
H325        H  0.89326164  0.57879169  0.31805403     0.09600
H326        H  0.89684454  0.64659960  0.27463138     0.10600
H327        H  0.80068139  0.69551388  0.36301256     0.16400
C328        C  0.59371899  0.16153564  0.58805230    -0.01800
C329        C  0.63259740  0.15554161  0.59812053     0.06800
C330        C  0.65093701  0.12245101  0.58564844    -0.07700
C331        C  0.63122600  0.09543115  0.56314886     0.04300
C332        C  0.59210706  0.10133125  0.55278602    -0.15000
C333        C  0.57386619  0.13458914  0.56559617    -0.08300
C334        C  0.65544729  0.18467897  0.61942559     0.05200
C335        C  0.64793394  0.19218954  0.65712470    -0.09400
C336        C  0.66854069  0.22032402  0.67761429     0.00200
C337        C  0.69760315  0.24154923  0.66015721     0.00100
C338        C  0.70511253  0.23318329  0.62234747    -0.13000
C339        C  0.68431189  0.20536927  0.60205956     0.00500
C340        C  0.65876332  0.22649328  0.71620757     0.39800
C341        C  0.69204185  0.19952631  0.56289717     0.36500
C342        C  0.57392048  0.19558196  0.59968251     0.36200
C343        C  0.65227879  0.06240625  0.55081676     0.37000
N344        N  0.65063649  0.23131287  0.74708183    -0.43800
N345        N  0.69795917  0.19476435  0.53148714    -0.44300
N346        N  0.66921239  0.03595175  0.54102005    -0.41600
N347        N  0.55815359  0.22291278  0.60903189    -0.43100
H348        H  0.54386415  0.13952550  0.55834616     0.13100
H349        H  0.68093841  0.11800630  0.59319295     0.09600
H350        H  0.62569342  0.17612468  0.67048258     0.10600
H351        H  0.72682440  0.24893710  0.60796860     0.16400
C352        C  0.40022083  0.17892090  0.65184007    -0.01800
C353        C  0.37862367  0.14833263  0.63604721     0.06800
C354        C  0.33852901  0.14839050  0.63896132    -0.07700
C355        C  0.31980936  0.17891906  0.65634296     0.04300
C356        C  0.34147870  0.20965564  0.67184676    -0.15000
C357        C  0.38163616  0.20884739  0.67006221    -0.08300
C358        C  0.39743844  0.11766866  0.61417955     0.05200
C359        C  0.42284243  0.09261753  0.63245464    -0.09400
C360        C  0.44501387  0.06682426  0.61203011     0.00200
C361        C  0.44273773  0.06664453  0.57237893     0.00100
C362        C  0.41510002  0.08985763  0.55444269    -0.13000
C363        C  0.39247746  0.11504671  0.57493560     0.00500
C364        C  0.46945343  0.04073198  0.63251841     0.39800
C365        C  0.36580579  0.13939495  0.55492517     0.36500
C366        C  0.44119482  0.18159147  0.64741888     0.36200
C367        C  0.27848446  0.17788348  0.65815777     0.37000
N368        N  0.48874149  0.01958455  0.64898395    -0.43800
N369        N  0.34424668  0.15880941  0.53901087    -0.44300
N370        N  0.24535500  0.17697242  0.65955833    -0.41600
N371        N  0.47396168  0.18402995  0.64359171    -0.43100
H372        H  0.39845156  0.23262135  0.68133410     0.13100
H373        H  0.32182190  0.12495601  0.62685414     0.09600
H374        H  0.42591876  0.09381844  0.66280020     0.10600
H375        H  0.41236021  0.08982485  0.52409428     0.16400
C376        C  0.33359634  0.16771332  0.34090681    -0.01800
C377        C  0.36874676  0.15238849  0.32974683     0.06800
C378        C  0.38230699  0.16086382  0.29433141    -0.07700
C379        C  0.36302579  0.18692367  0.27122402     0.04300
C380        C  0.32953947  0.20536976  0.28389352    -0.15000
C381        C  0.31417801  0.19364821  0.31792082    -0.08300
C382        C  0.39423689  0.13185675  0.35642779     0.05200
C383        C  0.38577180  0.09429085  0.36601196    -0.09400
C384        C  0.40944432  0.07472490  0.39169671     0.00200
C385        C  0.44222991  0.09296268  0.40802051     0.00100
C386        C  0.45011685  0.13079419  0.39871163    -0.13000
C387        C  0.42650472  0.15026014  0.37320964     0.00500
C388        C  0.39812939  0.03698161  0.40232062     0.39800
C389        C  0.43555455  0.18937858  0.36509606     0.36500
C390        C  0.31842508  0.15969269  0.37710776     0.36200
C391        C  0.37912054  0.19446851  0.23532882     0.37000
N392        N  0.38834536  0.00695662  0.41093954    -0.43800
N393        N  0.44267003  0.22073671  0.35858541    -0.44300
N394        N  0.39243555  0.20005624  0.20664954    -0.41600
N395        N  0.30615176  0.15350762  0.40612294    -0.43100
H396        H  0.28818232  0.20653455  0.32805197     0.13100
H397        H  0.40906197  0.14842824  0.28553060     0.09600
H398        H  0.36047916  0.08041804  0.35363266     0.10600
H399        H  0.47521940  0.14510664  0.41102601     0.16400
C400        C  0.62174010  0.09882831  0.33699451    -0.01800
C401        C  0.63140760  0.13462607  0.35283829     0.06800
C402        C  0.61865031  0.14429624  0.38842203    -0.07700
C403        C  0.59631729  0.11907678  0.40846932     0.04300
C404        C  0.58616919  0.08293141  0.39278728    -0.15000
C405        C  0.59919187  0.07341526  0.35687598    -0.08300
C406        C  0.65456474  0.16296241  0.33301746     0.05200
C407        C  0.63685131  0.18470842  0.30493775    -0.09400
C408        C  0.65656286  0.21449719  0.28825469     0.00200
C409        C  0.69528656  0.22272599  0.29949499     0.00100
C410        C  0.71290474  0.20035783  0.32747716    -0.13000
C411        C  0.69288346  0.17080788  0.34421760     0.00500
C412        C  0.63531877  0.23704700  0.26119776     0.39800
C413        C  0.71203632  0.14880926  0.37301037     0.36500
C414        C  0.63524892  0.08741711  0.30074545     0.36200
C415        C  0.58343128  0.13226740  0.44436654     0.37000
N416        N  0.61817868  0.25508213  0.23960199    -0.43800
N417        N  0.72706538  0.13095693  0.39612192    -0.44300
N418        N  0.57342083  0.14379690  0.47292938    -0.41600
N419        N  0.64626208  0.07824220  0.27175946    -0.43100
H420        H  0.59185276  0.04599021  0.34421785     0.13100
H421        H  0.62595294  0.17200793  0.40045291     0.09600
H422        H  0.60707582  0.17909939  0.29686647     0.10600
H423        H  0.74241928  0.20594551  0.33643931     0.16400
C424        C  0.36522278  0.82913024  0.62535117    -0.01800
C425        C  0.38578116  0.85470053  0.64940352     0.06800
C426        C  0.38634023  0.84870886  0.68813179    -0.07700
C427        C  0.36802454  0.81706779  0.70299142     0.04300
C428        C  0.34744451  0.79141217  0.67890419    -0.15000
C429        C  0.34582420  0.79830595  0.64027278    -0.08300
C430        C  0.40884508  0.88608267  0.63407344     0.05200
C431        C  0.39070993  0.91281156  0.61066009    -0.09400
C432        C  0.41234746  0.93747447  0.58927113     0.00200
C433        C  0.45278395  0.93545022  0.59129487     0.00100
C434        C  0.47073485  0.91199761  0.61798999    -0.13000
C435        C  0.44917810  0.88728333  0.63928150     0.00500
C436        C  0.39255734  0.96415108  0.56512861     0.39800
C437        C  0.46942576  0.86157719  0.66408978     0.36500
C438        C  0.36538641  0.83255106  0.58508560     0.36200
C439        C  0.37091106  0.81185898  0.74297955     0.37000
N440        N  0.37682453  0.98574401  0.54593306    -0.43800
N441        N  0.48573622  0.84122397  0.68415612    -0.44300
N442        N  0.37357966  0.80769525  0.77502406    -0.41600
N443        N  0.36562705  0.83522369  0.55284569    -0.43100
H444        H  0.33065871  0.77865286  0.62138172     0.13100
H445        H  0.40191919  0.86838653  0.70673798     0.09600
H446        H  0.35960586  0.91304235  0.60769855     0.10600
H447        H  0.50186494  0.91076598  0.62022603     0.16400
C448        C  0.65617170  0.88651803  0.59293874    -0.01800
C449        C  0.65005786  0.84702710  0.58964585     0.06800
C450        C  0.62043343  0.83318251  0.56570816    -0.07700
C451        C  0.59602740  0.85818197  0.54604970     0.04300
C452        C  0.60109098  0.89811757  0.55031847    -0.15000
C453        C  0.63203795  0.91161567  0.57322932    -0.08300
C454        C  0.67262406  0.81986331  0.61288673     0.05200
C455        C  0.65815469  0.80885462  0.64718665    -0.09400
C456        C  0.67790879  0.78277749  0.66992993     0.00200
C457        C  0.71241320  0.76585596  0.65763159     0.00100
C458        C  0.72765085  0.77854600  0.62390163    -0.13000
C459        C  0.70827578  0.80553542  0.60181806     0.00500
C460        C  0.66243172  0.77515691  0.70611428     0.39800
C461        C  0.72542992  0.81815108  0.56790763     0.36500
C462        C  0.68620004  0.90182322  0.61756685     0.36200
C463        C  0.56601183  0.84178651  0.52210578     0.37000
N464        N  0.65011856  0.76937203  0.73520873    -0.43800
N465        N  0.73935690  0.82854288  0.54090385    -0.44300
N466        N  0.54198320  0.82832600  0.50308536    -0.41600
N467        N  0.71029185  0.91382188  0.63744380    -0.43100
H468        H  0.63658743  0.94199700  0.57707585     0.13100
H469        H  0.61587449  0.80268591  0.56301613     0.09600
H470        H  0.63135118  0.82099361  0.65635159     0.10600
H471        H  0.75441283  0.76687150  0.61419383     0.16400
C472        C  0.61692908  0.84687505  0.40763145    -0.01800
C473        C  0.64730215  0.86069378  0.38655978     0.06800
C474        C  0.65323780  0.90003950  0.38443049    -0.07700
C475        C  0.62902809  0.92579289  0.40249095     0.04300
C476        C  0.59784473  0.91205097  0.42310354    -0.15000
C477        C  0.59274115  0.87242942  0.42564092    -0.08300
C478        C  0.67117222  0.83452237  0.36425989     0.05200
C479        C  0.66655236  0.83448774  0.32514411    -0.09400
C480        C  0.68545964  0.80767814  0.30300626     0.00200
C481        C  0.70976704  0.78038072  0.32016381     0.00100
C482        C  0.71575716  0.78175498  0.35926016    -0.13000
C483        C  0.69658244  0.80838649  0.38133394     0.00500
C484        C  0.67974016  0.80927267  0.26284844     0.39800
C485        C  0.70287896  0.80796299  0.42146059     0.36500
C486        C  0.60883334  0.80662060  0.40963244     0.36200
C487        C  0.63625412  0.96588823  0.39782514     0.37000
N488        N  0.67509051  0.81071367  0.23068469    -0.43800
N489        N  0.70776187  0.80749248  0.45363345    -0.44300
N490        N  0.64236188  0.99794468  0.39387809    -0.41600
N491        N  0.60241359  0.77436042  0.41120943    -0.43100
H492        H  0.56894013  0.86113900  0.44090346     0.13100
H493        H  0.67648879  0.91065508  0.36793154     0.09600
H494        H  0.64729798  0.85487066  0.31196230     0.10600
H495        H  0.73444584  0.76113137  0.37280089     0.16400
C496        C  0.39913797  0.87724022  0.38250990    -0.01800
C497        C  0.39312685  0.88688096  0.34454292     0.06800
C498        C  0.40967181  0.92053225  0.33148528    -0.07700
C499        C  0.43324430  0.94350800  0.35516718     0.04300
C500        C  0.44028335  0.93298933  0.39274818    -0.15000
C501        C  0.42226865  0.90032338  0.40611521    -0.08300
C502        C  0.37136854  0.86092033  0.31811276     0.05200
C503        C  0.33314449  0.85169856  0.32529513    -0.09400
C504        C  0.31369642  0.82285399  0.30481734     0.00200
C505        C  0.33276089  0.80215902  0.27652100     0.00100
C506        C  0.37000317  0.81369741  0.26743813    -0.13000
C507        C  0.38926523  0.84272171  0.28784799     0.00500
C508        C  0.27415373  0.81573332  0.31349964     0.39800
C509        C  0.42821140  0.85178951  0.27852520     0.36500
C510        C  0.38342102  0.84282973  0.39761614     0.36200
C511        C  0.44860503  0.97832715  0.34071648     0.37000
N512        N  0.24240278  0.81076903  0.32071654    -0.43800
N513        N  0.45936317  0.85928896  0.27100626    -0.44300
N514        N  0.46052087  0.00645917  0.32920388    -0.41600
N515        N  0.37083139  0.81532302  0.40982951    -0.43100
H516        H  0.42741507  0.89192990  0.43498825     0.13100
H517        H  0.40449517  0.92860873  0.30253243     0.09600
H518        H  0.31881849  0.86641152  0.34776582     0.10600
H519        H  0.38501054  0.79880755  0.24555041     0.16400
C520        C  0.69102248  0.37593575  0.16999488    -0.01800
C521        C  0.67310946  0.35504932  0.14026062     0.06800
C522        C  0.67454636  0.31514993  0.14045735    -0.07700
C523        C  0.69254924  0.29593627  0.17029864     0.04300
C524        C  0.70970641  0.31690748  0.20055456    -0.15000
C525        C  0.70938592  0.35682933  0.19949801    -0.08300
C526        C  0.65199278  0.37473436  0.10947577     0.05200
C527        C  0.67231527  0.39857060  0.08592445    -0.09400
C528        C  0.65299435  0.42152977  0.05976068     0.00200
C529        C  0.61238379  0.42159415  0.05757123     0.00100
C530        C  0.59234182  0.39557118  0.07939627    -0.13000
C531        C  0.61174340  0.37207905  0.10495145     0.00500
C532        C  0.67568213  0.44408983  0.03524197     0.39800
C533        C  0.58953769  0.34658843  0.12715371     0.36500
C534        C  0.68914040  0.41698686  0.17193800     0.36200
C535        C  0.69360368  0.25485773  0.16873187     0.37000
N536        N  0.69407374  0.46179312  0.01542691    -0.43800
N537        N  0.57163986  0.32592632  0.14457917    -0.44300
N538        N  0.69443645  0.22193628  0.16724028    -0.41600
N539        N  0.68755050  0.44986501  0.17367786    -0.43100
H540        H  0.72204409  0.37331614  0.22271069     0.13100
H541        H  0.66121123  0.29900691  0.11736957     0.09600
H542        H  0.70338930  0.39971946  0.08852815     0.10600
H543        H  0.56123873  0.39449995  0.07765526     0.16400
C544        C  0.63991556  0.67730169  0.18400425    -0.01800
C545        C  0.65224375  0.64340196  0.16687370     0.06800
C546        C  0.68867925  0.62903830  0.17621314    -0.07700
C547        C  0.71269905  0.64738186  0.20296214     0.04300
C548        C  0.70049290  0.68161661  0.22067181    -0.15000
C549        C  0.66402833  0.69623678  0.21030585    -0.08300
C550        C  0.62742305  0.62165301  0.13972654     0.05200
C551        C  0.62002764  0.63632842  0.10399557    -0.09400
C552        C  0.59995154  0.61480489  0.07641336     0.00200
C553        C  0.58735894  0.57743682  0.08440274     0.00100
C554        C  0.59330918  0.56378815  0.12096969    -0.13000
C555        C  0.61292315  0.58556216  0.14850751     0.00500
C556        C  0.59322174  0.63189870  0.04030148     0.39800
C557        C  0.61795208  0.57030022  0.18564593     0.36500
C558        C  0.60189714  0.69213338  0.17639113     0.36200
C559        C  0.74880042  0.62906424  0.21208332     0.37000
N560        N  0.58785531  0.64581050  0.01145346    -0.43800
N561        N  0.62186847  0.55822259  0.21547576    -0.44300
N562        N  0.77740909  0.61369945  0.21920074    -0.41600
N563        N  0.57130355  0.70380317  0.17047349    -0.43100
H564        H  0.65369526  0.72206981  0.22333685     0.13100
H565        H  0.69805515  0.60286742  0.16298378     0.09600
H566        H  0.63078508  0.66436312  0.09740587     0.10600
H567        H  0.58354065  0.53553334  0.12798188     0.16400
C568        C  0.38416050  0.62637033  0.05921094    -0.01800
C569        C  0.39588142  0.63429716  0.09676438     0.06800
C570        C  0.42661072  0.61371522  0.11258890    -0.07700
C571        C  0.44559570  0.58575944  0.09204912     0.04300
C572        C  0.43324664  0.57694161  0.05478557    -0.15000
C573        C  0.40250948  0.59760297  0.03878771    -0.08300
C574        C  0.37475348  0.66123325  0.12137842     0.05200
C575        C  0.33537685  0.65535293  0.12618234    -0.09400
C576        C  0.31549519  0.67582305  0.15332510     0.00200
C577        C  0.33525690  0.70239814  0.17711362     0.00100
C578        C  0.37409998  0.71004208  0.17065842    -0.13000
C579        C  0.39387531  0.68980037  0.14319077     0.00500
C580        C  0.27482256  0.66882052  0.15597909     0.39800
C581        C  0.43405425  0.69818478  0.13865342     0.36500
C582        C  0.35394032  0.64783358  0.04080681     0.36200
C583        C  0.47645071  0.56556559  0.11090715     0.37000
N584        N  0.24221668  0.66313011  0.15786563    -0.43800
N585        N  0.46630489  0.70474861  0.13520425    -0.44300
N586        N  0.50107657  0.54965493  0.12646101    -0.41600
N587        N  0.32976212  0.66508876  0.02602945    -0.43100
H588        H  0.39306016  0.59160116  0.01007617     0.13100
H589        H  0.43528207  0.61884837  0.14170938     0.09600
H590        H  0.32032769  0.63354025  0.10964813     0.10600
H591        H  0.38966713  0.73059207  0.18829711     0.16400
C592        C  0.38603898  0.31443750  0.14856523    -0.01800
C593        C  0.38582247  0.35446627  0.14822609     0.06800
C594        C  0.36356439  0.37463738  0.17365596    -0.07700
C595        C  0.34175708  0.35556150  0.19968821     0.04300
C596        C  0.34188362  0.31518901  0.20027269    -0.15000
C597        C  0.36417398  0.29517632  0.17446879    -0.08300
C598        C  0.40944648  0.37625932  0.12244063     0.05200
C599        C  0.39133327  0.39469621  0.09219802    -0.09400
C600        C  0.41199955  0.41915902  0.06964210     0.00200
C601        C  0.45148005  0.42553773  0.07760333     0.00100
C602        C  0.46969876  0.40600728  0.10726123    -0.13000
C603        C  0.44904767  0.38156388  0.12966389     0.00500
C604        C  0.39139366  0.43926150  0.04036929     0.39800
C605        C  0.46861032  0.36382846  0.16107967     0.36500
C606        C  0.40804498  0.29264147  0.12228195     0.36200
C607        C  0.32095067  0.37844281  0.22614463     0.37000
N608        N  0.37474301  0.45541045  0.01701747    -0.43800
N609        N  0.48426802  0.34972936  0.18631616    -0.44300
N610        N  0.30437908  0.39706016  0.24717930    -0.41600
N611        N  0.42561165  0.27511198  0.10118091    -0.43100
H612        H  0.36413606  0.26429575  0.17414304     0.13100
H613        H  0.36378991  0.40560813  0.17352347     0.09600
H614        H  0.36072896  0.39084124  0.08697608     0.10600
H615        H  0.50000697  0.41063137  0.11362380     0.16400
C616        C  0.70717102  0.62654925  0.80643773    -0.01800
C617        C  0.66697019  0.62222110  0.80328488     0.06800
C618        C  0.64692165  0.63656634  0.77199549    -0.07700
C619        C  0.66629708  0.65542742  0.74400178     0.04300
C620        C  0.70640521  0.66116141  0.74774593    -0.15000
C621        C  0.72653220  0.64604473  0.77880170    -0.08300
C622        C  0.64521809  0.60157878  0.83151548     0.05200
C623        C  0.62127907  0.62210386  0.85536816    -0.09400
C624        C  0.59939312  0.60330110  0.88171965     0.00200
C625        C  0.60105074  0.56322591  0.88391649     0.00100
C626        C  0.62482894  0.54288155  0.85971994    -0.13000
C627        C  0.64687138  0.56164651  0.83376028     0.00500
C628        C  0.57463488  0.62558021  0.90514185     0.39800
C629        C  0.67054886  0.53924318  0.80939098     0.36500
C630        C  0.72903237  0.61135036  0.83779090     0.36200
C631        C  0.64472643  0.66628915  0.71068832     0.37000
N632        N  0.55473390  0.64352487  0.92377185    -0.43800
N633        N  0.68950595  0.52114636  0.78997296    -0.44300
N634        N  0.62754502  0.67456906  0.68379151    -0.41600
N635        N  0.74657505  0.59894668  0.86278766    -0.43100
H636        H  0.75736252  0.64984968  0.78172120     0.13100
H637        H  0.61615525  0.63219276  0.76906152     0.09600
H638        H  0.61969521  0.65282900  0.85330316     0.10600
H639        H  0.62675761  0.51212423  0.86150889     0.16400
C640        C  0.69990360  0.32461201  0.82966165    -0.01800
C641        C  0.69038746  0.36355306  0.83335991     0.06800
C642        C  0.69595472  0.38770217  0.80301073    -0.07700
C643        C  0.70957991  0.37364370  0.76916504     0.04300
C644        C  0.71671929  0.33431403  0.76472948    -0.15000
C645        C  0.71190611  0.31017450  0.79517042    -0.08300
C646        C  0.67310327  0.38013266  0.86753934     0.05200
C647        C  0.68912320  0.41363254  0.88337643    -0.09400
C648        C  0.66937241  0.43534823  0.90973659     0.00200
C649        C  0.63314174  0.42280817  0.92178566     0.00100
C650        C  0.61914820  0.38731064  0.90855318    -0.13000
C651        C  0.63796725  0.36667032  0.88093026     0.00500
C652        C  0.68587018  0.47157684  0.92127129     0.39800
C653        C  0.61826466  0.33412488  0.86420701     0.36500
C654        C  0.69885393  0.29922647  0.86101362     0.36200
C655        C  0.71461636  0.40006335  0.73908926     0.37000
N656        N  0.69914109  0.50071302  0.93007325    -0.43800
N657        N  0.60221722  0.30812062  0.85097539    -0.44300
N658        N  0.71890440  0.42130947  0.71511743    -0.41600
N659        N  0.69808806  0.27879188  0.88608980    -0.43100
H660        H  0.71832928  0.28006602  0.79219467     0.13100
H661        H  0.68892568  0.41771240  0.80553771     0.09600
H662        H  0.71607589  0.42417075  0.87322487     0.10600
H663        H  0.59160667  0.37695961  0.91741016     0.16400
C664        C  0.39940086  0.33784930  0.79777603    -0.01800
C665        C  0.37798017  0.34899314  0.82908001     0.06800
C666        C  0.33835274  0.34133396  0.82862059    -0.07700
C667        C  0.32007316  0.32298415  0.79776344     0.04300
C668        C  0.34154341  0.31205214  0.76658775    -0.15000
C669        C  0.38115867  0.31920262  0.76718369    -0.08300
C670        C  0.39579965  0.37088364  0.86128057     0.05200
C671        C  0.38225565  0.40765744  0.86906618    -0.09400
C672        C  0.40074215  0.43124645  0.89606296     0.00200
C673        C  0.43381890  0.41813719  0.91597613     0.00100
C674        C  0.44568681  0.38026221  0.90985984    -0.13000
C675        C  0.42686000  0.35660749  0.88312230     0.00500
C676        C  0.38632169  0.46943851  0.90089450     0.39800
C677        C  0.44012484  0.31794209  0.87832838     0.36500
C678        C  0.43980040  0.34650724  0.79559037     0.36200
C679        C  0.27967479  0.31425456  0.79938398     0.37000
N680        N  0.37478170  0.50007157  0.90474878    -0.43800
N681        N  0.45076415  0.28700546  0.87425773    -0.44300
N682        N  0.24736122  0.30696796  0.80091712    -0.41600
N683        N  0.47222923  0.35318406  0.79383739    -0.43100
H684        H  0.39776412  0.31105416  0.74315236     0.13100
H685        H  0.32166585  0.34972901  0.85250275     0.09600
H686        H  0.35797818  0.41863021  0.85277292     0.10600
H687        H  0.47052221  0.36930912  0.92530781     0.16400
C688        C  0.43316671  0.57936048  0.82903842    -0.01800
C689        C  0.41865988  0.61491108  0.84069330     0.06800
C690        C  0.42678807  0.62774171  0.87745169    -0.07700
C691        C  0.44820039  0.60549978  0.90281327     0.04300
C692        C  0.46164933  0.56904368  0.89166005    -0.15000
C693        C  0.45427574  0.55688907  0.85435447    -0.08300
C694        C  0.39462954  0.63879881  0.81500648     0.05200
C695        C  0.35976822  0.62417426  0.80015480    -0.09400
C696        C  0.33719374  0.64477939  0.77432850     0.00200
C697        C  0.34943722  0.68127154  0.76280926     0.00100
C698        C  0.38372025  0.69629337  0.77915582    -0.13000
C699        C  0.40620007  0.67554009  0.80476214     0.00500
C700        C  0.30212917  0.62709048  0.76009534     0.39800
C701        C  0.44189110  0.69203827  0.81885919     0.36500
C702        C  0.42712352  0.56551761  0.79103478     0.36200
C703        C  0.45557982  0.62111305  0.93996517     0.37000
N704        N  0.27409227  0.61269209  0.74880517    -0.43800
N705        N  0.47045001  0.70540699  0.83008629    -0.44300
N706        N  0.46152394  0.63376812  0.96967991    -0.41600
N707        N  0.42222700  0.55454041  0.76055610    -0.43100
H708        H  0.46445575  0.52933453  0.84487063     0.13100
H709        H  0.41590119  0.65516541  0.88652664     0.09600
H710        H  0.35037527  0.59617007  0.80849891     0.10600
H711        H  0.39385473  0.72417739  0.77129799     0.16400
loop_ 
_geom_bond_atom_site_label_1 
_geom_bond_atom_site_label_2 
_geom_bond_distance 
_geom_bond_site_symmetry_2 
_ccdc_geom_bond_type 
O1            C9   1.281       .  A
O1          Co21   2.032       .  S
O2           C10   1.262       .  A
O2          Co22   2.001       .  S
O3           C11   1.270       .  A
O3          Co23   1.901   1_554  S
O4           C12   1.263       .  A
O4          Co24   1.966       .  S
O5           C11   1.294       .  A
O5          Co22   2.096       .  S
O6           C12   1.274       .  A
O6          Co21   2.014       .  S
O7           C10   1.257       .  A
O7          Co24   1.979   1_554  S
O8            C9   1.269       .  A
O8          Co23   1.967       .  S
C9          C692   1.496       .  S
C10         C553   1.489       .  S
C11         C572   1.486       .  S
C12         C625   1.475       .  S
O13          C26   1.261       .  A
O13         Co21   1.961       .  S
O14          C27   1.262       .  A
O14         Co22   1.881       .  S
O15          C28   1.266       .  A
O15         Co23   2.016       .  S
O16          C29   1.280       .  A
O16         Co24   2.033   1_554  S
O17          C29   1.266       .  A
O17         Co22   1.960       .  S
O18          C28   1.257       .  A
O18         Co21   1.973       .  S
O19          C26   1.271       .  A
O19         Co24   2.020       .  S
O20          C27   1.296       .  A
O20         Co23   2.111   1_554  S
Co21         O25   2.007       .  S
Co22         O25   1.979   1_554  S
Co23         O25   2.008       .  S
Co24         O25   2.035       .  S
C26         C649   1.490       .  S
C27         C601   1.477       .  S
C28         C673   1.493       .  S
C29         C529   1.487       .  S
O30          C38   1.280       .  A
O30         Co50   2.021       .  S
O31          C39   1.263       .  A
O31         Co51   2.005       .  S
O32          C40   1.269       .  A
O32         Co52   1.898       .  S
O33          C41   1.266       .  A
O33         Co53   1.970       .  S
O34          C40   1.296       .  A
O34         Co51   2.103       .  S
O35          C41   1.276       .  A
O35         Co50   2.028       .  S
O36          C39   1.256       .  A
O36         Co53   1.968   1_545  S
O37          C38   1.269       .  A
O37         Co52   1.968   1_565  S
C38         C476   1.490       .  S
C39         C332   1.487       .  S
C40         C404   1.492       .  S
C41         C452   1.494       .  S
O42          C55   1.262       .  A
O42         Co50   1.966       .  S
O43          C56   1.265       .  A
O43         Co51   1.889       .  S
O44          C57   1.266       .  A
O44         Co52   2.013   1_565  S
O45          C58   1.281       .  A
O45         Co53   2.035   1_545  S
O46          C58   1.270       .  A
O46         Co51   1.966       .  S
O47          C57   1.259       .  A
O47         Co50   1.972       .  S
O48          C55   1.269       .  A
O48         Co53   2.006       .  S
O49          C56   1.294       .  A
O49         Co52   2.108       .  S
Co50         O54   2.012       .  S
Co51         O54   1.993   1_545  S
Co52         O54   2.006   1_545  S
Co53         O54   2.027       .  S
C55         C433   1.472       .  S
C56         C385   1.478       .  S
C57         C500   1.483       .  S
C58         C361   1.490       .  S
O59          C67   1.281       .  A
O59         Co79   2.032       .  S
O60          C68   1.264       .  A
O60         Co80   1.999       .  S
O61          C69   1.267       .  A
O61         Co81   1.881       .  S
O62          C70   1.264       .  A
O62         Co82   1.964   1_655  S
O63          C69   1.296       .  A
O63         Co80   2.110       .  S
O64          C70   1.272       .  A
O64         Co79   2.013       .  S
O65          C68   1.259       .  A
O65         Co82   1.974       .  S
O66          C67   1.270   1_455  A
O66         Co81   1.972       .  S
C67         C284   1.499       .  S
C68         C140   1.480       .  S
C69         C217   1.484       .  S
C70         C265   1.487       .  S
O71          C84   1.262       .  A
O71         Co79   1.962       .  S
O72          C85   1.265       .  A
O72         Co80   1.883       .  S
O73          C86   1.262   1_455  A
O73         Co81   2.003       .  S
O74          C87   1.278       .  A
O74         Co82   2.020       .  S
O75          C87   1.269       .  A
O75         Co80   1.973       .  S
O76          C86   1.256       .  A
O76         Co79   1.969       .  S
O77          C84   1.273       .  A
O77         Co82   2.014   1_655  S
O78          C85   1.297       .  A
O78         Co81   2.118       .  S
Co79         O83   2.005   1_655  S
Co80         O83   1.982       .  S
Co81         O83   1.996       .  S
Co82         O83   2.019       .  S
C84         C236   1.486       .  S
C85         C188   1.489       .  S
C86         C308   1.476       .  S
C87         C169   1.477       .  S
C88         C289   1.503       .  S
C88          N89   1.358       .  A
C88          N93   1.365       .  A
N89          C90   1.356       .  A
C90         C524   1.481       .  S
C90          N91   1.353       .  A
N91          C92   1.357       .  A
C92         C409   1.493       .  S
C92          N93   1.366       .  A
C94         C313   1.477       .  S
C94          N95   1.356       .  A
C94          N99   1.357       .  A
N95          C96   1.358       .  A
C96         C481   1.481       .  S
C96          N97   1.359       .  A
N97          C98   1.360       .  A
C98         C548   1.496       .  S
C98          N99   1.357       .  A
C100        C644   1.476       .  S
C100        N101   1.357       .  A
C100        N105   1.359       .  A
N101        C102   1.355       .  A
C102        C260   1.485       .  S
C102        N103   1.357       .  A
N103        C104   1.359       .  A
C104        C337   1.496       .  S
C104        N105   1.360       .  A
C106        C505   1.494       .  S
C106        N107   1.359       .  A
C106        N111   1.363       .  A
N107        C108   1.359       .  A
C108        C193   1.493       .  S
C108        N109   1.356       .  A
N109        C110   1.358       .  A
C110        C577   1.489       .  S
C110        N111   1.362       .  A
C112        C697   1.499       .  S
C112        N113   1.361       .  A
C112        N117   1.360       .  A
N113        C114   1.360       .  A
C114        C164   1.478       .  S
C114        N115   1.356       .  A
N115        C116   1.357       .  A
C116        C428   1.482       .  S
C116        N117   1.357       .  A
C118        C668   1.478       .  S
C118        N119   1.360       .  A
C118        N123   1.357       .  A
N119        C120   1.362       .  A
C120        C145   1.494       .  S
C120        N121   1.361       .  A
N121        C122   1.358       .  A
C122        C356   1.479       .  S
C122        N123   1.357       .  A
C124        C620   1.478       .  S
C124        N125   1.354       .  A
C124        N129   1.356       .  A
N125        C126   1.356       .  A
C126        C241   1.475       .  S
C126        N127   1.361       .  A
N127        C128   1.362       .  A
C128        C457   1.496       .  S
C128        N129   1.358       .  A
C130        C380   1.491       .  S
C130        N131   1.360       .  A
C130        N135   1.359       .  A
N131        C132   1.359       .  A
C132        C596   1.482       .  S
C132        N133   1.354       .  A
N133        C134   1.354       .  A
C134        C212   1.485       .  S
C134        N135   1.356       .  A
C136        C137   1.410       .  A
C136        C141   1.397       .  A
C136        C150   1.444       .  S
C137        C142   1.483       .  S
C137        C138   1.402       .  A
C138        C139   1.400       .  A
C138        H157   1.087       .  S
C139        C140   1.415       .  A
C139        C151   1.444       .  S
C140        C141   1.406       .  A
C141        H156   1.086       .  S
C142        C143   1.400       .  A
C142        C147   1.407       .  A
C143        C144   1.400       .  A
C143        H158   1.091       .  S
C144        C145   1.419       .  A
C144        C148   1.442       .  S
C145        C146   1.411       .  A
C146        C147   1.400       .  A
C146        H159   1.090       .  S
C147        C149   1.444       .  S
C148        N152   1.157       .  T
C149        N153   1.157       .  T
C150        N155   1.157       .  T
C151        N154   1.157       .  T
C160        C161   1.411       .  A
C160        C165   1.401       .  A
C160        C174   1.444       .  S
C161        C166   1.482       .  S
C161        C162   1.401       .  A
C162        C163   1.400       .  A
C162        H181   1.084       .  S
C163        C164   1.414       .  A
C163        C175   1.444       .  S
C164        C165   1.403       .  A
C165        H180   1.084       .  S
C166        C167   1.404       .  A
C166        C171   1.409       .  A
C167        C168   1.405       .  A
C167        H182   1.082       .  S
C168        C169   1.413       .  A
C168        C172   1.443       .  S
C169        C170   1.404       .  A
C170        C171   1.395       .  A
C170        H183   1.083       .  S
C171        C173   1.445       .  S
C172        N176   1.157       .  T
C173        N177   1.157       .  T
C174        N179   1.157       .  T
C175        N178   1.157       .  T
C184        C185   1.407       .  A
C184        C189   1.398       .  A
C184        C198   1.444       .  S
C185        C190   1.481       .  S
C185        C186   1.401       .  A
C186        C187   1.403       .  A
C186        H205   1.086       .  S
C187        C188   1.418       .  A
C187        C199   1.444       .  S
C188        C189   1.408       .  A
C189        H204   1.085       .  S
C190        C191   1.400       .  A
C190        C195   1.406       .  A
C191        C192   1.402       .  A
C191        H206   1.085       .  S
C192        C193   1.421       .  A
C192        C196   1.444       .  S
C193        C194   1.408       .  A
C194        C195   1.398       .  A
C194        H207   1.080       .  S
C195        C197   1.444       .  S
C196        N200   1.158       .  T
C197        N201   1.157       .  T
C198        N203   1.157       .  T
C199        N202   1.157       .  T
C208        C209   1.410       .  A
C208        C213   1.399       .  A
C208        C222   1.445       .  S
C209        C214   1.484       .  S
C209        C210   1.402       .  A
C210        C211   1.396       .  A
C210        H229   1.085       .  S
C211        C212   1.416       .  A
C211        C223   1.444       .  S
C212        C213   1.408       .  A
C213        H228   1.084       .  S
C214        C215   1.402       .  A
C214        C219   1.410       .  A
C215        C216   1.398       .  A
C215        H230   1.084       .  S
C216        C217   1.417       .  A
C216        C220   1.443       .  S
C217        C218   1.407       .  A
C218        C219   1.397       .  A
C218        H231   1.084       .  S
C219        C221   1.444       .  S
C220        N224   1.157       .  T
C221        N225   1.157       .  T
C222        N227   1.157       .  T
C223        N226   1.157       .  T
C232        C233   1.409       .  A
C232        C237   1.398       .  A
C232        C246   1.444       .  S
C233        C238   1.483       .  S
C233        C234   1.401       .  A
C234        C235   1.397       .  A
C234        H253   1.084       .  S
C235        C236   1.419       .  A
C235        C247   1.445       .  S
C236        C237   1.409       .  A
C237        H252   1.083       .  S
C238        C239   1.404       .  A
C238        C243   1.413       .  A
C239        C240   1.401       .  A
C239        H254   1.084       .  S
C240        C241   1.410       .  A
C240        C244   1.443       .  S
C241        C242   1.402       .  A
C242        C243   1.396       .  A
C242        H255   1.085       .  S
C243        C245   1.445       .  S
C244        N248   1.157       .  T
C245        N249   1.157       .  T
C246        N251   1.157       .  T
C247        N250   1.157       .  T
C256        C257   1.405       .  A
C256        C261   1.398       .  A
C256        C270   1.444       .  S
C257        C262   1.477       .  S
C257        C258   1.400       .  A
C258        C259   1.401       .  A
C258        H277   1.084       .  S
C259        C260   1.417       .  A
C259        C271   1.444       .  S
C260        C261   1.408       .  A
C261        H276   1.084       .  S
C262        C263   1.399       .  A
C262        C267   1.406       .  A
C263        C264   1.400       .  A
C263        H278   1.085       .  S
C264        C265   1.420       .  A
C264        C268   1.445       .  S
C265        C266   1.408       .  A
C266        C267   1.398       .  A
C266        H279   1.085       .  S
C267        C269   1.444       .  S
C268        N272   1.158       .  T
C269        N273   1.157       .  T
C270        N275   1.157       .  T
C271        N274   1.157       .  T
C280        C281   1.407       .  A
C280        C285   1.400       .  A
C280        C294   1.444       .  S
C281        C286   1.487       .  S
C281        C282   1.401       .  A
C282        C283   1.406       .  A
C282        H301   1.086       .  S
C283        C284   1.422       .  A
C283        C295   1.444       .  S
C284        C285   1.410       .  A
C285        H300   1.086       .  S
C286        C287   1.398       .  A
C286        C291   1.407       .  A
C287        C288   1.401       .  A
C287        H302   1.084       .  S
C288        C289   1.424       .  A
C288        C292   1.445       .  S
C289        C290   1.412       .  A
C290        C291   1.406       .  A
C290        H303   1.083       .  S
C291        C293   1.443       .  S
C292        N296   1.158       .  T
C293        N297   1.157       .  T
C294        N299   1.157       .  T
C295        N298   1.158   1_655  T
C304        C305   1.408       .  A
C304        C309   1.397       .  A
C304        C318   1.444       .  S
C305        C310   1.479       .  S
C305        C306   1.402       .  A
C306        C307   1.398       .  A
C306        H325   1.085       .  S
C307        C308   1.414       .  A
C307        C319   1.445       .  S
C308        C309   1.406       .  A
C309        H324   1.085       .  S
C310        C311   1.400       .  A
C310        C315   1.412       .  A
C311        C312   1.398       .  A
C311        H326   1.086       .  S
C312        C313   1.413       .  A
C312        C316   1.443       .  S
C313        C314   1.404       .  A
C314        C315   1.399       .  A
C314        H327   1.086       .  S
C315        C317   1.445       .  S
C316        N320   1.157       .  T
C317        N321   1.158       .  T
C318        N323   1.157       .  T
C319        N322   1.157       .  T
C328        C329   1.408       .  A
C328        C333   1.399       .  A
C328        C342   1.444       .  S
C329        C334   1.482       .  S
C329        C330   1.401       .  A
C330        C331   1.400       .  A
C330        H349   1.083       .  S
C331        C332   1.417       .  A
C331        C343   1.444       .  S
C332        C333   1.408       .  A
C333        H348   1.084       .  S
C334        C335   1.402       .  A
C334        C339   1.405       .  A
C335        C336   1.404       .  A
C335        H350   1.085       .  S
C336        C337   1.422       .  A
C336        C340   1.444       .  S
C337        C338   1.411       .  A
C338        C339   1.396       .  A
C338        H351   1.083       .  S
C339        C341   1.445       .  S
C340        N344   1.158       .  T
C341        N345   1.157       .  T
C342        N347   1.157       .  T
C343        N346   1.157       .  T
C352        C353   1.411       .  A
C352        C357   1.399       .  A
C352        C366   1.444       .  S
C353        C358   1.487       .  S
C353        C354   1.404       .  A
C354        C355   1.403       .  A
C354        H373   1.084       .  S
C355        C356   1.413       .  A
C355        C367   1.444       .  S
C356        C357   1.403       .  A
C357        H372   1.085       .  S
C358        C359   1.403       .  A
C358        C363   1.409       .  A
C359        C360   1.403       .  A
C359        H374   1.086       .  S
C360        C361   1.416       .  A
C360        C364   1.444       .  S
C361        C362   1.408       .  A
C362        C363   1.400       .  A
C362        H375   1.086       .  S
C363        C365   1.444       .  S
C364        N368   1.157       .  T
C365        N369   1.157       .  T
C366        N371   1.157       .  T
C367        N370   1.157       .  T
C376        C377   1.406       .  A
C376        C381   1.397       .  A
C376        C390   1.444       .  S
C377        C382   1.479       .  S
C377        C378   1.400       .  A
C378        C379   1.400       .  A
C378        H397   1.084       .  S
C379        C380   1.419       .  A
C379        C391   1.444       .  S
C380        C381   1.410       .  A
C381        H396   1.083       .  S
C382        C383   1.401       .  A
C382        C387   1.409       .  A
C383        C384   1.403       .  A
C383        H398   1.085       .  S
C384        C385   1.414       .  A
C384        C388   1.442       .  S
C385        C386   1.404       .  A
C386        C387   1.396       .  A
C386        H399   1.086       .  S
C387        C389   1.445       .  S
C388        N392   1.157       .  T
C389        N393   1.157       .  T
C390        N395   1.157       .  T
C391        N394   1.157       .  T
C400        C401   1.407       .  A
C400        C405   1.404       .  A
C400        C414   1.443       .  S
C401        C406   1.482       .  S
C401        C402   1.397       .  A
C402        C403   1.398       .  A
C402        H421   1.085       .  S
C403        C404   1.420       .  A
C403        C415   1.442       .  S
C404        C405   1.410       .  A
C405        H420   1.085       .  S
C406        C407   1.399       .  A
C406        C411   1.407       .  A
C407        C408   1.401       .  A
C407        H422   1.085       .  S
C408        C409   1.423       .  A
C408        C412   1.446       .  S
C409        C410   1.407       .  A
C410        C411   1.401       .  A
C410        H423   1.084       .  S
C411        C413   1.443       .  S
C412        N416   1.158       .  T
C413        N417   1.157       .  T
C414        N419   1.157       .  T
C415        N418   1.157       .  T
C424        C425   1.412       .  A
C424        C429   1.397       .  A
C424        C438   1.446       .  S
C425        C430   1.484       .  S
C425        C426   1.402       .  A
C426        C427   1.400       .  A
C426        H445   1.085       .  S
C427        C428   1.415       .  A
C427        C439   1.444       .  S
C428        C429   1.404       .  A
C429        H444   1.083       .  S
C430        C431   1.405       .  A
C430        C435   1.412       .  A
C431        C432   1.399       .  A
C431        H446   1.086       .  S
C432        C433   1.410       .  A
C432        C436   1.445       .  S
C433        C434   1.403       .  A
C434        C435   1.396       .  A
C434        H447   1.086       .  S
C435        C437   1.444       .  S
C436        N440   1.157       .  T
C437        N441   1.157       .  T
C438        N443   1.157       .  T
C439        N442   1.157       .  T
C448        C449   1.406       .  A
C448        C453   1.402       .  A
C448        C462   1.444       .  S
C449        C454   1.484       .  S
C449        C450   1.401       .  A
C450        C451   1.404       .  A
C450        H469   1.085       .  S
C451        C452   1.419       .  A
C451        C463   1.444       .  S
C452        C453   1.410       .  A
C453        H468   1.085       .  S
C454        C455   1.399       .  A
C454        C459   1.407       .  A
C455        C456   1.401       .  A
C455        H470   1.085       .  S
C456        C457   1.421       .  A
C456        C460   1.445       .  S
C457        C458   1.410       .  A
C458        C459   1.403       .  A
C458        H471   1.084       .  S
C459        C461   1.443       .  S
C460        N464   1.158       .  T
C461        N465   1.157       .  T
C462        N467   1.157       .  T
C463        N466   1.157       .  T
C472        C473   1.408       .  A
C472        C477   1.396       .  A
C472        C486   1.445       .  S
C473        C478   1.481       .  S
C473        C474   1.401       .  A
C474        C475   1.402       .  A
C474        H493   1.085       .  S
C475        C476   1.419       .  A
C475        C487   1.443       .  S
C476        C477   1.407       .  A
C477        H492   1.084       .  S
C478        C479   1.402       .  A
C478        C483   1.409       .  A
C479        C480   1.400       .  A
C479        H494   1.085       .  S
C480        C481   1.414       .  A
C480        C484   1.444       .  S
C481        C482   1.406       .  A
C482        C483   1.399       .  A
C482        H495   1.084       .  S
C483        C485   1.444       .  S
C484        N488   1.157       .  T
C485        N489   1.157       .  T
C486        N491   1.157       .  T
C487        N490   1.157       .  T
C496        C497   1.412       .  A
C496        C501   1.397       .  A
C496        C510   1.445       .  S
C497        C502   1.492       .  S
C497        C498   1.406       .  A
C498        C499   1.406       .  A
C498        H517   1.086       .  S
C499        C500   1.412       .  A
C499        C511   1.443       .  S
C500        C501   1.404       .  A
C501        H516   1.087       .  S
C502        C503   1.402       .  A
C502        C507   1.411       .  A
C503        C504   1.402       .  A
C503        H518   1.084       .  S
C504        C505   1.419       .  A
C504        C508   1.444       .  S
C505        C506   1.408       .  A
C506        C507   1.402       .  A
C506        H519   1.083       .  S
C507        C509   1.443       .  S
C508        N512   1.157       .  T
C509        N513   1.157       .  T
C510        N515   1.157       .  T
C511        N514   1.157   1_565  T
C520        C521   1.411       .  A
C520        C525   1.397       .  A
C520        C534   1.444       .  S
C521        C526   1.484       .  S
C521        C522   1.403       .  A
C522        C523   1.402       .  A
C522        H541   1.086       .  S
C523        C524   1.415       .  A
C523        C535   1.444       .  S
C524        C525   1.404       .  A
C525        H540   1.086       .  S
C526        C527   1.402       .  A
C526        C531   1.409       .  A
C527        C528   1.401       .  A
C527        H542   1.084       .  S
C528        C529   1.415       .  A
C528        C532   1.443       .  S
C529        C530   1.409       .  A
C530        C531   1.399       .  A
C530        H543   1.084       .  S
C531        C533   1.445       .  S
C532        N536   1.157       .  T
C533        N537   1.157       .  T
C534        N539   1.157       .  T
C535        N538   1.157       .  T
C544        C545   1.405       .  A
C544        C549   1.400       .  A
C544        C558   1.444       .  S
C545        C550   1.482       .  S
C545        C546   1.399       .  A
C546        C547   1.399       .  A
C546        H565   1.083       .  S
C547        C548   1.423       .  A
C547        C559   1.444       .  S
C548        C549   1.412       .  A
C549        H564   1.081       .  S
C550        C551   1.400       .  A
C550        C555   1.407       .  A
C551        C552   1.402       .  A
C551        H566   1.085       .  S
C552        C553   1.419       .  A
C552        C556   1.444       .  S
C553        C554   1.408       .  A
C554        C555   1.398       .  A
C554        H567   1.084       .  S
C555        C557   1.444       .  S
C556        N560   1.157       .  T
C557        N561   1.157       .  T
C558        N563   1.157       .  T
C559        N562   1.157       .  T
C568        C569   1.414       .  A
C568        C573   1.404       .  A
C568        C582   1.443       .  S
C569        C574   1.493       .  S
C569        C570   1.402       .  A
C570        C571   1.397       .  A
C570        H589   1.087       .  S
C571        C572   1.416       .  A
C571        C583   1.444       .  S
C572        C573   1.406       .  A
C573        H588   1.085       .  S
C574        C575   1.403       .  A
C574        C579   1.414       .  A
C575        C576   1.400       .  A
C575        H590   1.085       .  S
C576        C577   1.416       .  A
C576        C580   1.444       .  S
C577        C578   1.406       .  A
C578        C579   1.403       .  A
C578        H591   1.084       .  S
C579        C581   1.445       .  S
C580        N584   1.157       .  T
C581        N585   1.157       .  T
C582        N587   1.157       .  T
C583        N586   1.157       .  T
C592        C593   1.406       .  A
C592        C597   1.398       .  A
C592        C606   1.443       .  S
C593        C598   1.476       .  S
C593        C594   1.399       .  A
C594        C595   1.397       .  A
C594        H613   1.088       .  S
C595        C596   1.419       .  A
C595        C607   1.445       .  S
C596        C597   1.405       .  A
C597        H612   1.085       .  S
C598        C599   1.402       .  A
C598        C603   1.407       .  A
C599        C600   1.400       .  A
C599        H614   1.085       .  S
C600        C601   1.413       .  A
C600        C604   1.444       .  S
C601        C602   1.406       .  A
C602        C603   1.396       .  A
C602        H615   1.085       .  S
C603        C605   1.445       .  S
C604        N608   1.157       .  T
C605        N609   1.157       .  T
C606        N611   1.157       .  T
C607        N610   1.158       .  T
C616        C617   1.409       .  A
C616        C621   1.400       .  A
C616        C630   1.444       .  S
C617        C622   1.478       .  S
C617        C618   1.400       .  A
C618        C619   1.398       .  A
C618        H637   1.084       .  S
C619        C620   1.413       .  A
C619        C631   1.444       .  S
C620        C621   1.405       .  A
C621        H636   1.084       .  S
C622        C623   1.404       .  A
C622        C627   1.407       .  A
C623        C624   1.402       .  A
C623        H638   1.084       .  S
C624        C625   1.412       .  A
C624        C628   1.444       .  S
C625        C626   1.405       .  A
C626        C627   1.395       .  A
C626        H639   1.085       .  S
C627        C629   1.444       .  S
C628        N632   1.157       .  T
C629        N633   1.157       .  T
C630        N635   1.157       .  T
C631        N634   1.157       .  T
C640        C641   1.413       .  A
C640        C645   1.402       .  A
C640        C654   1.443       .  S
C641        C646   1.490       .  S
C641        C642   1.405       .  A
C642        C643   1.397       .  A
C642        H661   1.086       .  S
C643        C644   1.412       .  A
C643        C655   1.445       .  S
C644        C645   1.403       .  A
C645        H660   1.086       .  S
C646        C647   1.405       .  A
C646        C651   1.412       .  A
C647        C648   1.401       .  A
C647        H662   1.084       .  S
C648        C649   1.418       .  A
C648        C652   1.445       .  S
C649        C650   1.408       .  A
C650        C651   1.397       .  A
C650        H663   1.084       .  S
C651        C653   1.444       .  S
C652        N656   1.158       .  T
C653        N657   1.157       .  T
C654        N659   1.157       .  T
C655        N658   1.157       .  T
C664        C665   1.415       .  A
C664        C669   1.401       .  A
C664        C678   1.444       .  S
C665        C670   1.493       .  S
C665        C666   1.406       .  A
C666        C667   1.404       .  A
C666        H685   1.085       .  S
C667        C668   1.410       .  A
C667        C679   1.443       .  S
C668        C669   1.402       .  A
C669        H684   1.086       .  S
C670        C671   1.403       .  A
C670        C675   1.411       .  A
C671        C672   1.403       .  A
C671        H686   1.086       .  S
C672        C673   1.417       .  A
C672        C676   1.443       .  S
C673        C674   1.410       .  A
C674        C675   1.403       .  A
C674        H687   1.086       .  S
C675        C677   1.445       .  S
C676        N680   1.157       .  T
C677        N681   1.158       .  T
C678        N683   1.157       .  T
C679        N682   1.157       .  T
C688        C689   1.410       .  A
C688        C693   1.401       .  A
C688        C702   1.445       .  S
C689        C694   1.492       .  S
C689        C690   1.402       .  A
C690        C691   1.403       .  A
C690        H709   1.085       .  S
C691        C692   1.420       .  A
C691        C703   1.444       .  S
C692        C693   1.409       .  A
C693        H708   1.085       .  S
C694        C695   1.404       .  A
C694        C699   1.408       .  A
C695        C696   1.404       .  A
C695        H710   1.085       .  S
C696        C697   1.421       .  A
C696        C700   1.444       .  S
C697        C698   1.411       .  A
C698        C699   1.400       .  A
C698        H711   1.084       .  S
C699        C701   1.444       .  S
C700        N704   1.158       .  T
C701        N705   1.157       .  T
C702        N707   1.157       .  T
C703        N706   1.157       .  T
