geometry optimzed in LAMMPS
_audit_creation_date              2020-11-30 
_audit_creation_method            'lammps2cif' 
_symmetry_space_group_name_H-M    'P1' 
_symmetry_Int_Tables_number       1 
_symmetry_cell_setting            triclinic 
loop_ 
_symmetry_equiv_pos_as_xyz 
  x,y,z 
_cell_length_a                    38.94193501626185 
_cell_length_b                    64.3598318342751 
_cell_length_c                    44.593703448347526 
_cell_angle_alpha                 89.48179198060538 
_cell_angle_beta                  90.07144999580687 
_cell_angle_gamma                 90.05734262223567 
loop_ 
_atom_site_label 
_atom_site_type_symbol 
_atom_site_fract_x 
_atom_site_fract_y 
_atom_site_fract_z 
_atom_site_charge 
O1          O  0.27657993  0.96928727  0.00077159    -0.73190
O2          O  0.27350163  0.03157075  0.99931518    -0.74170
O3          O  0.27425108  0.00057266  0.04504280    -0.62790
O4          O  0.27530915  0.00067472  0.45439330    -0.71200
O5          O  0.21869733  0.99986109  0.45390000    -0.70750
O6          O  0.21744192  0.99841637  0.04404196    -0.62000
O7          O  0.21675851  0.03061747  0.50033834    -0.74550
O8          O  0.21995855  0.96810571  0.49817436    -0.73290
Cu9        Cu  0.27688046  0.00054231  0.99981910     1.04560
Cu10       Cu  0.21626409  0.99922877  0.49902116     1.04330
C11         C  0.24880518  0.95874238  0.99989901     0.93010
C12         C  0.24475398  0.04102499  0.50044573     0.92150
C13         C  0.24550915  0.99943639  0.05880928     0.84300
C14         C  0.24711129  0.00038101  0.43963506     0.90570
O15         O  0.27025876  0.03208555  0.24738979    -0.73190
O16         O  0.27361483  0.96946385  0.24749113    -0.74170
O17         O  0.27094953  0.00085566  0.20280898    -0.62790
O18         O  0.27372786  0.00109181  0.29295330    -0.71200
O19         O  0.21715483  0.99881842  0.29459006    -0.70750
O20         O  0.21410149  0.99997345  0.20400024    -0.62000
O21         O  0.21697494  0.96853001  0.24919114    -0.74510
O22         O  0.21375947  0.03074430  0.25064817    -0.73290
Cu23       Cu  0.27409851  0.00089753  0.24765789     1.04560
Cu24       Cu  0.21354458  0.99950737  0.24958616     1.04330
C25         C  0.24140970  0.04140002  0.24959688     0.93010
C26         C  0.24565413  0.95901739  0.24791329     0.92150
C27         C  0.24219148  0.00018792  0.18908732     0.84300
C28         C  0.24597821  0.00010738  0.30818322     0.90570
N29         N  0.31969009  0.21914981  0.49485444    -0.27530
N30         N  0.30316196  0.23697120  0.49763065    -0.35390
C31         C  0.32618170  0.25245676  0.49988085     0.00810
C32         C  0.35872488  0.24396637  0.49852247     0.06830
C33         C  0.35368935  0.22283552  0.49528359    -0.06270
H34         H  0.31963636  0.26865419  0.50273914     0.07500
H35         H  0.37323603  0.21094638  0.49391333     0.08700
Cu36       Cu  0.25019696  0.23955977  0.49959214     0.44170
Cu37       Cu  0.29555374  0.19045873  0.49286307     0.41990
Cu38       Cu  0.20452995  0.19129625  0.50889446     0.43880
N39         N  0.19717238  0.23761577  0.50189237    -0.34920
N40         N  0.18046901  0.21988824  0.50554529    -0.29170
C41         C  0.14652132  0.22364872  0.50520521    -0.05270
C42         C  0.14166347  0.24476662  0.50116324     0.06940
C43         C  0.17429872  0.25316773  0.49920480     0.00740
H44         H  0.12688603  0.21182257  0.50731303     0.08390
H45         H  0.18097789  0.26932761  0.49568679     0.07470
N46         N  0.23304927  0.16430647  0.50542248    -0.36370
N47         N  0.26584869  0.16390167  0.49787786    -0.28550
C48         C  0.27595070  0.14400200  0.49549465    -0.03790
C49         C  0.24823723  0.13127479  0.50219242     0.04820
C50         C  0.22155618  0.14472041  0.50852341     0.02910
H51         H  0.30157080  0.13916587  0.48933036     0.08020
H52         H  0.19553237  0.14057857  0.51461001     0.06850
N53         N  0.17029869  0.22002041  0.25646469    -0.27530
N54         N  0.18672002  0.23780746  0.25235988    -0.35390
C55         C  0.16363356  0.25318394  0.24909981     0.00810
C56         C  0.13112205  0.24464780  0.25116019     0.06830
C57         C  0.13627556  0.22360458  0.25588100    -0.06270
H58         H  0.17010223  0.26931729  0.24504279     0.07500
H59         H  0.11679124  0.21169776  0.25811735     0.08700
Cu60       Cu  0.23965092  0.24024212  0.24987264     0.44170
Cu61       Cu  0.19487934  0.19151485  0.26011832     0.41990
Cu62       Cu  0.28489246  0.19173606  0.23987536     0.43880
N63         N  0.29259781  0.23801446  0.24738881    -0.34920
N64         N  0.30912125  0.22032449  0.24334755    -0.29170
C65         C  0.34311169  0.22399958  0.24397971    -0.05270
C66         C  0.34816079  0.24499769  0.24865828     0.06940
C67         C  0.31561059  0.25342364  0.25064480     0.00740
H68         H  0.36265014  0.21216645  0.24183290     0.08390
H69         H  0.30906824  0.26949333  0.25468323     0.07470
N70         N  0.25612728  0.16486605  0.24554965    -0.36370
N71         N  0.22404967  0.16480518  0.25518229    -0.28550
C72         C  0.21366676  0.14503498  0.25901387    -0.03790
C73         C  0.24024084  0.13194745  0.25084459     0.04820
C74         C  0.26672225  0.14512958  0.24233225     0.02910
H75         H  0.18847357  0.14053074  0.26695409     0.08020
H76         H  0.29195556  0.14071664  0.23453119     0.06850
N77         N  0.18044132  0.78018657  0.49345213    -0.27530
N78         N  0.19695993  0.76241670  0.49723948    -0.35390
C79         C  0.17393823  0.74695018  0.50014528     0.00810
C80         C  0.14140219  0.75543202  0.49819608     0.06830
C81         C  0.14645373  0.77651526  0.49390524    -0.06270
H82         H  0.18046304  0.73080174  0.50393869     0.07500
H83         H  0.12692623  0.78839604  0.49190214     0.08700
Cu84       Cu  0.24989420  0.76012125  0.49988146     0.44170
Cu85       Cu  0.20461980  0.80881093  0.49049663     0.41990
Cu86       Cu  0.29482888  0.80868466  0.51002577     0.43880
N87         N  0.30281897  0.76248600  0.50256362    -0.34920
N88         N  0.31926991  0.78022276  0.50659346    -0.29170
C89         C  0.35327930  0.77663660  0.50615496    -0.05270
C90         C  0.35840021  0.75564071  0.50161990     0.06940
C91         C  0.32588868  0.74712890  0.49951030     0.00740
H92         H  0.37277236  0.78851684  0.50837300     0.08390
H93         H  0.31940975  0.73103210  0.49553887     0.07470
N94         N  0.26573984  0.83545365  0.50530511    -0.36370
N95         N  0.23344920  0.83554898  0.49615994    -0.28550
C96         C  0.22281867  0.85532914  0.49316885    -0.03790
C97         C  0.24955924  0.86834054  0.50124176     0.04820
C98         C  0.27630198  0.85515492  0.50894461     0.02910
H99         H  0.19742252  0.85988782  0.48578640     0.08020
H100        H  0.30172146  0.85955033  0.51639554     0.06850
N101        N  0.17105465  0.78076882  0.25708465    -0.27530
N102        N  0.18743688  0.76298501  0.25339097    -0.35390
C103        C  0.16432406  0.74758727  0.25075223     0.00810
C104        C  0.13184339  0.75608625  0.25276536     0.06830
C105        C  0.13702330  0.77714129  0.25682082    -0.06270
H106        H  0.17076131  0.73145860  0.24707225     0.07500
H107        H  0.11754753  0.78902688  0.25880814     0.08700
Cu108      Cu  0.24029599  0.76036341  0.25040187     0.44170
Cu109      Cu  0.19552528  0.80936279  0.25978845     0.41990
Cu110      Cu  0.28551605  0.80856003  0.23945374     0.43880
N111        N  0.29321005  0.76232678  0.24706457    -0.34920
N112        N  0.30977710  0.78003429  0.24277514    -0.29170
C113        C  0.34374688  0.77633776  0.24292594    -0.05270
C114        C  0.34874276  0.75528084  0.24750198     0.06940
C115        C  0.31617781  0.74684839  0.24995279     0.00740
H116        H  0.36330516  0.78818135  0.24048401     0.08390
H117        H  0.30961729  0.73074076  0.25411551     0.07470
N118        N  0.25731040  0.83552730  0.24457379    -0.36370
N119        N  0.22518977  0.83591244  0.25407737    -0.28550
C120        C  0.21538905  0.85580974  0.25724999    -0.03790
C121        C  0.24249710  0.86857400  0.24888178     0.04820
C122        C  0.26855131  0.85511862  0.24084314     0.02910
H123        H  0.19027740  0.86061861  0.26485927     0.08020
H124        H  0.29395913  0.85925143  0.23300820     0.06850
N125        N  0.06933926  0.71973755  0.50577095    -0.27530
N126        N  0.05286108  0.73754831  0.50224322    -0.35390
C127        C  0.07591937  0.75299165  0.49932990     0.00810
C128        C  0.10843613  0.74446399  0.50102609     0.06830
C129        C  0.10334098  0.72337004  0.50516669    -0.06270
H130        H  0.06942395  0.76916782  0.49576310     0.07500
H131        H  0.12284422  0.71146238  0.50699900     0.08700
Cu132      Cu  0.49990883  0.74001895  0.50007668     0.44170
Cu133      Cu  0.04507266  0.69112611  0.50877700     0.41990
Cu134      Cu  0.45456163  0.69157271  0.49060241     0.43880
N135        N  0.44693239  0.73781900  0.49770344    -0.34920
N136        N  0.43037726  0.72009979  0.49384834    -0.29170
C137        C  0.39639745  0.72373729  0.49435715    -0.05270
C138        C  0.39137552  0.74475048  0.49877150     0.06940
C139        C  0.42393397  0.75322624  0.50073275     0.00740
H140        H  0.37685492  0.71187389  0.49228131     0.08390
H141        H  0.43048732  0.76932959  0.50456046     0.07470
N142        N  0.48323931  0.66468199  0.49545375    -0.36370
N143        N  0.01576087  0.66447542  0.50394969    -0.28550
C144        C  0.02612942  0.64465357  0.50708983    -0.03790
C145        C  0.49894018  0.63174526  0.49982362     0.04820
C146        C  0.47221825  0.64501658  0.49245381     0.02910
H147        H  0.05165016  0.63999294  0.51399411     0.08020
H148        H  0.44653146  0.64070346  0.48562205     0.06850
N149        N  0.06005239  0.72024551  0.24555616    -0.27530
N150        N  0.04336274  0.73796460  0.24874201    -0.35390
C151        C  0.06626551  0.75348657  0.25156399     0.00810
C152        C  0.09888880  0.74508339  0.25013864     0.06830
C153        C  0.09400055  0.72399687  0.24627454    -0.06270
H154        H  0.05960480  0.76963227  0.25477843     0.07500
H155        H  0.11361696  0.71216981  0.24461449     0.08700
Cu156      Cu  0.49030115  0.74001907  0.25021795     0.44170
Cu157      Cu  0.03612992  0.69159269  0.24250811     0.41990
Cu158      Cu  0.44494190  0.69095690  0.25731089     0.43880
N159        N  0.43728585  0.73743870  0.25161275    -0.34920
N160        N  0.42076877  0.71958035  0.25462802    -0.29170
C161        C  0.38677141  0.72318699  0.25390027    -0.05270
C162        C  0.38170422  0.74431062  0.25017483     0.06940
C163        C  0.41424198  0.75288339  0.24885921     0.00740
H164        H  0.36725307  0.71124860  0.25539853     0.08390
H165        H  0.42076183  0.76910638  0.24576904     0.07470
N166        N  0.47437735  0.66434476  0.25311472    -0.36370
N167        N  0.00736506  0.66462200  0.24619149    -0.28550
C168        C  0.01857918  0.64498016  0.24357909    -0.03790
C169        C  0.49143281  0.63166882  0.24946316     0.04820
C170        C  0.46381916  0.64450018  0.25548351     0.02910
H171        H  0.04465454  0.64070602  0.23801665     0.08020
H172        H  0.43792178  0.63976837  0.26107789     0.06850
N173        N  0.43041623  0.27993269  0.50499222    -0.27530
N174        N  0.44714041  0.26222731  0.50181865    -0.35390
C175        C  0.42427027  0.24666682  0.49929283     0.00810
C176        C  0.39163330  0.25503749  0.50086738     0.06830
C177        C  0.39647423  0.27614409  0.50451763    -0.06270
H178        H  0.43095885  0.23051961  0.49613755     0.07500
H179        H  0.37683268  0.28795182  0.50623495     0.08700
Cu180      Cu  0.00018685  0.26026071  0.49988104     0.44170
Cu181      Cu  0.45432783  0.30857168  0.50780789     0.41990
Cu182      Cu  0.04557301  0.30931915  0.49275400     0.43880
N183        N  0.05318398  0.26280884  0.49799231    -0.34920
N184        N  0.06974064  0.28066000  0.49505170    -0.29170
C185        C  0.10373507  0.27699217  0.49544467    -0.05270
C186        C  0.10874691  0.25583413  0.49884195     0.06940
C187        C  0.07618366  0.24731295  0.50033147     0.00740
H188        H  0.12329448  0.28890419  0.49391642     0.08390
H189        H  0.06961753  0.23108584  0.50329114     0.07470
N190        N  0.01596165  0.33587960  0.49696393    -0.36370
N191        N  0.48300453  0.33553731  0.50399588    -0.28550
C192        C  0.47166368  0.35514742  0.50659606    -0.03790
C193        C  0.99867199  0.36851934  0.50056013     0.04820
C194        C  0.02635778  0.35575098  0.49448183     0.02910
H195        H  0.44558767  0.35935607  0.51225965     0.08020
H196        H  0.05219410  0.36054343  0.48877952     0.06850
N197        N  0.42032281  0.28055181  0.25679672    -0.27530
N198        N  0.43673606  0.26280944  0.25285729    -0.35390
C199        C  0.41364399  0.24743672  0.24975010     0.00810
C200        C  0.38114397  0.25592065  0.25173093     0.06830
C201        C  0.38630047  0.27693041  0.25625932    -0.06270
H202        H  0.42010599  0.23134646  0.24577962     0.07500
H203        H  0.36681571  0.28880318  0.25832936     0.08700
Cu204      Cu  0.48963559  0.26035514  0.25018340     0.44170
Cu205      Cu  0.44479380  0.30911413  0.26000415     0.41990
Cu206      Cu  0.03474509  0.30885988  0.23957063     0.43880
N207        N  0.04256056  0.26254299  0.24725969    -0.34920
N208        N  0.05907196  0.28027920  0.24298918    -0.29170
C209        C  0.09306405  0.27661785  0.24338496    -0.05270
C210        C  0.09812498  0.25557429  0.24815248     0.06940
C211        C  0.06557370  0.24711084  0.25043189     0.00740
H212        H  0.11259926  0.28848473  0.24104830     0.08390
H213        H  0.05904073  0.23100520  0.25464548     0.07470
N214        N  0.00618962  0.33574052  0.24504236    -0.36370
N215        N  0.47408535  0.33584367  0.25461419    -0.28550
C216        C  0.46394065  0.35563619  0.25819997    -0.03790
C217        C  0.49076282  0.36867363  0.25002658     0.04820
C218        C  0.01706618  0.35545694  0.24168351     0.02910
H219        H  0.43878938  0.36019199  0.26603088     0.08020
H220        H  0.04240191  0.35983676  0.23394874     0.06850
O221        O  0.02465924  0.53120420  0.49987299    -0.73190
O222        O  0.02423451  0.46885075  0.50106659    -0.74170
O223        O  0.02479766  0.49936873  0.45532169    -0.62790
O224        O  0.02322770  0.50074038  0.04550366    -0.71200
O225        O  0.46679064  0.49953051  0.04440354    -0.70750
O226        O  0.46834560  0.50076983  0.45466364    -0.62000
O227        O  0.46751104  0.46878325  0.49964586    -0.74510
O228        O  0.46795893  0.53146335  0.49943666    -0.73290
Cu229      Cu  0.02618524  0.50002427  0.50045586     1.04560
Cu230      Cu  0.46570982  0.50013383  0.49950642     1.04330
C231        C  0.49647772  0.54132060  0.49959903     0.93010
C232        C  0.49591540  0.45884567  0.50051640     0.92150
C233        C  0.49672242  0.49997741  0.44048550     0.84300
C234        C  0.49462665  0.50012751  0.05946837     0.90570
O235        O  0.46513448  0.53136654  0.24905795    -0.73190
O236        O  0.46498432  0.46907819  0.25333696    -0.74170
O237        O  0.46731545  0.50158863  0.29574183    -0.62790
O238        O  0.46356311  0.49854854  0.20586299    -0.71200
O239        O  0.01991883  0.50162427  0.20438180    -0.70750
O240        O  0.02363826  0.49841306  0.29388678    -0.62000
O241        O  0.02130349  0.46889227  0.24716484    -0.74510
O242        O  0.02189766  0.53143415  0.25023219    -0.73290
Cu243      Cu  0.46325848  0.50019331  0.25102724     1.04560
Cu244      Cu  0.02366771  0.50012900  0.24890811     1.04330
C245        C  0.49347751  0.54136239  0.24952085     0.93010
C246        C  0.49299053  0.45903982  0.25022886     0.92150
C247        C  0.49609952  0.49969684  0.30923396     0.84300
C248        C  0.49133912  0.49970949  0.19070436     0.90570
C249        C  0.46833260  0.49176575  0.39060768    -0.02090
C250        C  0.49695859  0.49960768  0.40681696     0.07590
C251        C  0.02598147  0.50676580  0.39042048    -0.02200
C252        C  0.02605641  0.50650142  0.35877511    -0.02210
C253        C  0.49725346  0.49893916  0.34274497     0.07720
C254        C  0.46904744  0.49079721  0.35905032    -0.02400
Br255      Br  0.43204338  0.47634979  0.33874080    -0.00950
Br256      Br  0.42725765  0.48180114  0.41053005    -0.01020
Br257      Br  0.06633810  0.51694556  0.33812637    -0.00980
Br258      Br  0.06592473  0.51815659  0.41035232    -0.00970
C259        C  0.46380973  0.50672164  0.10872760    -0.02090
C260        C  0.49355463  0.49989322  0.09314644     0.07590
C261        C  0.02177838  0.49225094  0.11018425    -0.02200
C262        C  0.01987683  0.49096532  0.14170624    -0.02210
C263        C  0.49098553  0.49882369  0.15720135     0.07720
C264        C  0.46262455  0.50624891  0.14036352    -0.02400
Br265      Br  0.42143953  0.51614270  0.15991114    -0.00950
Br266      Br  0.42428701  0.51798429  0.08775391    -0.01020
Br267      Br  0.05622872  0.47639027  0.16302868    -0.00980
Br268      Br  0.06395293  0.48311163  0.09148568    -0.00970
C269        C  0.01800888  0.40252310  0.26485397    -0.02090
C270        C  0.49127595  0.39177357  0.25015644     0.07590
C271        C  0.46513509  0.40317914  0.23546443    -0.02200
C272        C  0.46572311  0.42508105  0.23540852    -0.02210
C273        C  0.49250638  0.43589617  0.25011874     0.07720
C274        C  0.01866271  0.42442648  0.26483536    -0.02400
Br275      Br  0.05472215  0.43841752  0.28671310    -0.00950
Br276      Br  0.05296154  0.38740632  0.28680684    -0.01020
Br277      Br  0.43046927  0.43995283  0.21339523    -0.00980
Br278      Br  0.42925945  0.38896900  0.21368047    -0.00970
C279        C  0.47255905  0.42425086  0.48326657    -0.02090
C280        C  0.99621791  0.43564130  0.50084951     0.07590
C281        C  0.02067282  0.42469491  0.01843651    -0.02200
C282        C  0.02131783  0.40280815  0.01843830    -0.02210
C283        C  0.99795376  0.39154036  0.50056544     0.07720
C284        C  0.47371655  0.40237498  0.48289012    -0.02400
Br285      Br  0.44324962  0.38734801  0.45648687    -0.00950
Br286      Br  0.43914711  0.43815530  0.45827145    -0.01020
Br287      Br  0.05312439  0.38820582  0.04445627    -0.00980
Br288      Br  0.05248900  0.43910551  0.04415682    -0.00970
C289        C  0.46876573  0.59751472  0.23135482    -0.02090
C290        C  0.49195190  0.60864379  0.24946292     0.07590
C291        C  0.01578975  0.59773236  0.26745929    -0.02200
C292        C  0.01661390  0.57584951  0.26723813    -0.02210
C293        C  0.49323548  0.56454959  0.24927556     0.07720
C294        C  0.46927952  0.57562536  0.23131832    -0.02400
Br295      Br  0.43799670  0.56124262  0.20506674    -0.00950
Br296      Br  0.43732315  0.61221030  0.20511909    -0.01020
Br297      Br  0.04899120  0.56176335  0.29306813    -0.00980
Br298      Br  0.04616030  0.61267061  0.29404061    -0.00970
C299        C  0.47282814  0.59785680  0.01599091    -0.02090
C300        C  0.49844021  0.60869651  0.49989243     0.07590
C301        C  0.02334724  0.59754436  0.48372378    -0.02200
C302        C  0.02288516  0.57564849  0.48375360    -0.02210
C303        C  0.49700739  0.56454940  0.49956170     0.07720
C304        C  0.47186129  0.57596963  0.01560758    -0.02400
Br305      Br  0.43672987  0.56200113  0.03870902    -0.00950
Br306      Br  0.44014355  0.61278499  0.04032680    -0.01020
Br307      Br  0.05732646  0.56138528  0.46060461    -0.00980
Br308      Br  0.05720631  0.61219820  0.45984507    -0.00970
C309        C  0.21236661  0.07593011  0.23839047    -0.02090
C310        C  0.24020086  0.06461856  0.25105178     0.07590
C311        C  0.26712980  0.07577570  0.26514074    -0.02200
C312        C  0.26691879  0.09769354  0.26533001    -0.02210
C313        C  0.24020733  0.10883686  0.25104900     0.07720
C314        C  0.21305099  0.09782346  0.23747672    -0.02400
Br315      Br  0.17760083  0.11255059  0.21548895    -0.00950
Br316      Br  0.17242183  0.06213196  0.22223473    -0.01020
Br317      Br  0.30248276  0.11230925  0.28695274    -0.00980
Br318      Br  0.30327878  0.06142579  0.28678889    -0.00970
C319        C  0.27073341  0.90232216  0.26241419    -0.02090
C320        C  0.24354953  0.89164644  0.24832149     0.07590
C321        C  0.21794266  0.90305844  0.23301350    -0.02200
C322        C  0.21908576  0.92495105  0.23229794    -0.02210
C323        C  0.24599419  0.93579907  0.24693902     0.07720
C324        C  0.27239705  0.92419449  0.26120678    -0.02400
Br325      Br  0.31114934  0.93766814  0.27983616    -0.00950
Br326      Br  0.30480234  0.88715088  0.28541111    -0.01020
Br327      Br  0.18466187  0.93961894  0.20896966    -0.00980
Br328      Br  0.18197993  0.88878822  0.21139801    -0.00970
C329        C  0.22055089  0.01055722  0.38945796    -0.02090
C330        C  0.24724444  0.00061826  0.40589474     0.07590
C331        C  0.27401207  0.99089388  0.38965854    -0.02200
C332        C  0.27362209  0.99067169  0.35798306    -0.02210
C333        C  0.24700336  0.00063649  0.34172684     0.07720
C334        C  0.22104733  0.01109875  0.35779880    -0.02400
Br335      Br  0.18721512  0.02784210  0.33677359    -0.00950
Br336      Br  0.18293737  0.02416474  0.40944716    -0.01020
Br337      Br  0.30944990  0.97576718  0.33737539    -0.00980
Br338      Br  0.31103371  0.97666835  0.41007464    -0.00970
C339        C  0.26362659  0.98544327  0.14050010    -0.02090
C340        C  0.24189355  0.99945719  0.15570726     0.07590
C341        C  0.22095410  0.01312024  0.13879148    -0.02200
C342        C  0.22249574  0.01326834  0.10720739    -0.02210
C343        C  0.24448729  0.99944571  0.09208615     0.07720
C344        C  0.26491168  0.98544975  0.10887484    -0.02400
Br345      Br  0.29348004  0.96547129  0.08860047    -0.00950
Br346      Br  0.29023602  0.96518996  0.16278748    -0.01020
Br347      Br  0.19595011  0.03350149  0.08478258    -0.00980
Br348      Br  0.19102806  0.03242977  0.15853449    -0.00970
C349        C  0.21964102  0.07598146  0.48604790    -0.02090
C350        C  0.24434761  0.06416353  0.50207308     0.07590
C351        C  0.26948531  0.07471062  0.01925663    -0.02200
C352        C  0.27073800  0.09659917  0.01929660    -0.02210
C353        C  0.24701589  0.10823811  0.50215048     0.07720
C354        C  0.22152420  0.09783691  0.48549968    -0.02400
Br355      Br  0.19038092  0.11336952  0.45997083    -0.00950
Br356      Br  0.18299499  0.06276222  0.46424659    -0.01020
Br357      Br  0.30406369  0.11052452  0.04426441    -0.00980
Br358      Br  0.30085065  0.05946756  0.04495575    -0.00970
C359        C  0.22390863  0.90242435  0.01671262    -0.02090
C360        C  0.24970323  0.89140123  0.50133551     0.07590
C361        C  0.27595242  0.90248966  0.48638824    -0.02200
C362        C  0.27650363  0.92437075  0.48682998    -0.02210
C363        C  0.24983897  0.93553854  0.50110878     0.07720
C364        C  0.22388216  0.92432691  0.01657762    -0.02400
Br365      Br  0.18942884  0.93856778  0.03993826    -0.00950
Br366      Br  0.18942882  0.88759303  0.03961417    -0.01020
Br367      Br  0.31417907  0.93846000  0.46723982    -0.00980
Br368      Br  0.31023371  0.88785902  0.46334319    -0.00970
O369        O  0.27657902  0.96926979  0.50077152    -0.73190
O370        O  0.27349885  0.03155374  0.49931533    -0.74170
O371        O  0.27424924  0.00055747  0.54504252    -0.62790
O372        O  0.27531109  0.00069008  0.95439278    -0.71200
O373        O  0.21869923  0.99987755  0.95390028    -0.70750
O374        O  0.21744010  0.99840081  0.54404265    -0.62000
O375        O  0.21676137  0.03063508  0.00033853    -0.74550
O376        O  0.21995921  0.96812417  0.99817358    -0.73290
Cu377      Cu  0.27687849  0.00052581  0.49981918     1.04560
Cu378      Cu  0.21626595  0.99924607  0.99902093     1.04330
C379        C  0.24880494  0.95872399  0.49989902     0.93010
C380        C  0.24475706  0.04104251  0.00044541     0.92150
C381        C  0.24550750  0.99942287  0.55880948     0.84300
C382        C  0.24711293  0.00039530  0.93963493     0.90570
O383        O  0.27025864  0.03208560  0.74738985    -0.73190
O384        O  0.27361450  0.96946397  0.74749185    -0.74170
O385        O  0.27094984  0.00085552  0.70280944    -0.62790
O386        O  0.27372687  0.00109226  0.79295375    -0.71200
O387        O  0.21715380  0.99881883  0.79458966    -0.70750
O388        O  0.21410176  0.99997330  0.70399979    -0.62000
O389        O  0.21697459  0.96853012  0.74919104    -0.74510
O390        O  0.21375929  0.03074442  0.75064752    -0.73290
Cu391      Cu  0.27409823  0.00089765  0.74765833     1.04560
Cu392      Cu  0.21354426  0.99950749  0.74958574     1.04330
C393        C  0.24140959  0.04140010  0.74959654     0.93010
C394        C  0.24565381  0.95901750  0.74791360     0.92150
C395        C  0.24219208  0.00018739  0.68908735     0.84300
C396        C  0.24597685  0.00010825  0.80818323     0.90570
N397        N  0.31970286  0.21917995  0.99487791    -0.27530
N398        N  0.30316631  0.23699950  0.99764279    -0.35390
C399        C  0.32617870  0.25249029  0.99988370     0.00810
C400        C  0.35872732  0.24400652  0.99853080     0.06830
C401        C  0.35370114  0.22287285  0.99530537    -0.06270
H402        H  0.31962475  0.26868758  0.00272930     0.07500
H403        H  0.37325411  0.21098721  0.99393953     0.08700
Cu404      Cu  0.25019727  0.23957975  0.99959375     0.44170
Cu405      Cu  0.29557008  0.19048370  0.99289137     0.41990
Cu406      Cu  0.20451987  0.19131890  0.00887038     0.43880
N407        N  0.19716920  0.23764063  0.00188349    -0.34920
N408        N  0.18045972  0.21991415  0.00552599    -0.29170
C409        C  0.14651257  0.22367974  0.00518719    -0.05270
C410        C  0.14166145  0.24479995  0.00115730     0.06940
C411        C  0.17430077  0.25319638  0.99920409     0.00740
H412        H  0.12687272  0.21185601  0.00729077     0.08390
H413        H  0.18098629  0.26935643  0.99569780     0.07470
N414        N  0.23304960  0.16432934  0.00541290    -0.36370
N415        N  0.26585527  0.16392500  0.99788722    -0.28550
C416        C  0.27595839  0.14402476  0.99550817    -0.03790
C417        C  0.24824045  0.13129619  0.00219015     0.04820
C418        C  0.22155530  0.14474268  0.00850720     0.02910
H419        H  0.30158292  0.13918895  0.98935729     0.08020
H420        H  0.19552755  0.14060092  0.01458098     0.06850
N421        N  0.17029866  0.22002043  0.75646470    -0.27530
N422        N  0.18671998  0.23780748  0.75235986    -0.35390
C423        C  0.16363348  0.25318395  0.74909981     0.00810
C424        C  0.13112199  0.24464780  0.75116024     0.06830
C425        C  0.13627553  0.22360458  0.75588106    -0.06270
H426        H  0.17010213  0.26931730  0.74504277     0.07500
H427        H  0.11679122  0.21169775  0.75811744     0.08700
Cu428      Cu  0.23965089  0.24024214  0.74987259     0.44170
Cu429      Cu  0.19487935  0.19151489  0.76011832     0.41990
Cu430      Cu  0.28489258  0.19173609  0.73987546     0.43880
N431        N  0.29259781  0.23801453  0.74738884    -0.34920
N432        N  0.30912133  0.22032458  0.74334765    -0.29170
C433        C  0.34311176  0.22399974  0.74397987    -0.05270
C434        C  0.34816076  0.24499787  0.74865839     0.06940
C435        C  0.31561051  0.25342375  0.75064483     0.00740
H436        H  0.36265028  0.21216664  0.74183310     0.08390
H437        H  0.30906807  0.26949344  0.75468319     0.07470
N438        N  0.25612729  0.16486608  0.74554966    -0.36370
N439        N  0.22404966  0.16480523  0.75518225    -0.28550
C440        C  0.21366667  0.14503504  0.75901377    -0.03790
C441        C  0.24024071  0.13194749  0.75084449     0.04820
C442        C  0.26672219  0.14512959  0.74233223     0.02910
H443        H  0.18847345  0.14053082  0.76695394     0.08020
H444        H  0.29195550  0.14071663  0.73453119     0.06850
N445        N  0.18044560  0.78021580  0.99342311    -0.27530
N446        N  0.19695779  0.76244532  0.99722603    -0.35390
C447        C  0.17393065  0.74698300  0.00014360     0.00810
C448        C  0.14139873  0.75546932  0.99818638     0.06830
C449        C  0.14645749  0.77654971  0.99387769    -0.06270
H450        H  0.18044885  0.73083543  0.00395447     0.07500
H451        H  0.12693485  0.78843291  0.99186814     0.08700
Cu452      Cu  0.24988832  0.76014644  0.99988420     0.44170
Cu453      Cu  0.20462510  0.80883707  0.99046171     0.41990
Cu454      Cu  0.29479786  0.80871389  0.01007386     0.43880
N455        N  0.30280840  0.76252194  0.00258161    -0.34920
N456        N  0.31924781  0.78026026  0.00663052    -0.29170
C457        C  0.35325886  0.77668398  0.00618772    -0.05270
C458        C  0.35839265  0.75569284  0.00162918     0.06940
C459        C  0.32588817  0.74717281  0.99951134     0.00740
H460        H  0.37274345  0.78856852  0.00841381     0.08390
H461        H  0.31942073  0.73107693  0.99551890     0.07470
N462        N  0.26572017  0.83548012  0.00532352    -0.36370
N463        N  0.23344088  0.83557525  0.99614886    -0.28550
C464        C  0.22281396  0.85535500  0.99314669    -0.03790
C465        C  0.24954712  0.86836478  0.00124076     0.04820
C466        C  0.27628055  0.85518053  0.00896851     0.02910
H467        H  0.19742594  0.85991441  0.98574357     0.08020
H468        H  0.30169238  0.85957612  0.01643913     0.06850
N469        N  0.17105456  0.78076885  0.75708466    -0.27530
N470        N  0.18743679  0.76298503  0.75339099    -0.35390
C471        C  0.16432396  0.74758729  0.75075228     0.00810
C472        C  0.13184329  0.75608627  0.75276543     0.06830
C473        C  0.13702321  0.77714131  0.75682086    -0.06270
H474        H  0.17076120  0.73145862  0.74707232     0.07500
H475        H  0.11754744  0.78902691  0.75880817     0.08700
Cu476      Cu  0.24029589  0.76036345  0.75040187     0.44170
Cu477      Cu  0.19552520  0.80936284  0.75978841     0.41990
Cu478      Cu  0.28551595  0.80856009  0.73945373     0.43880
N479        N  0.29320994  0.76232684  0.74706455    -0.34920
N480        N  0.30977699  0.78003436  0.74277512    -0.29170
C481        C  0.34374677  0.77633782  0.74292593    -0.05270
C482        C  0.34874265  0.75528091  0.74750199     0.06940
C483        C  0.31617770  0.74684846  0.74995280     0.00740
H484        H  0.36330505  0.78818142  0.74048401     0.08390
H485        H  0.30961718  0.73074083  0.75411552     0.07470
N486        N  0.25731034  0.83552737  0.74457383    -0.36370
N487        N  0.22518970  0.83591251  0.75407740    -0.28550
C488        C  0.21538901  0.85580981  0.75725005    -0.03790
C489        C  0.24249708  0.86857408  0.74888189     0.04820
C490        C  0.26855128  0.85511869  0.74084324     0.02910
H491        H  0.19027735  0.86061868  0.76485932     0.08020
H492        H  0.29395911  0.85925150  0.73300831     0.06850
N493        N  0.06931822  0.71979513  0.00580265    -0.27530
N494        N  0.05285109  0.73760835  0.00225939    -0.35390
C495        C  0.07591825  0.75304489  0.99933042     0.00810
C496        C  0.10842873  0.74451005  0.00103229     0.06830
C497        C  0.10332182  0.72341936  0.00519320    -0.06270
H498        H  0.06943270  0.76922083  0.99574655     0.07500
H499        H  0.12281782  0.71150785  0.00703267     0.08700
Cu500      Cu  0.49990386  0.74009412  0.00008270     0.44170
Cu501      Cu  0.04504086  0.69118877  0.00882315     0.41990
Cu502      Cu  0.45456674  0.69165316  0.99056382     0.43880
N503        N  0.44693123  0.73789412  0.99768963    -0.34920
N504        N  0.43038334  0.72017510  0.99381299    -0.29170
C505        C  0.39640317  0.72380580  0.99432287    -0.05270
C506        C  0.39137274  0.74481451  0.99876144     0.06940
C507        C  0.42392616  0.75329581  0.00073457     0.00740
H508        H  0.37686676  0.71193956  0.99223788     0.08390
H509        H  0.43047127  0.76939757  0.00458587     0.07470
N510        N  0.48320962  0.66475768  0.99545979    -0.36370
N511        N  0.01572154  0.66454337  0.00398261    -0.28550
C512        C  0.02607255  0.64471900  0.00713251    -0.03790
C513        C  0.49887924  0.63181918  0.99984808     0.04820
C514        C  0.47217454  0.64509594  0.99245683     0.02910
H515        H  0.05158549  0.64005065  0.01404819     0.08020
H516        H  0.44649259  0.64078924  0.98560271     0.06850
N517        N  0.06005220  0.72024558  0.74555616    -0.27530
N518        N  0.04336260  0.73796468  0.74874207    -0.35390
C519        C  0.06626541  0.75348663  0.75156410     0.00810
C520        C  0.09888868  0.74508342  0.75013872     0.06830
C521        C  0.09400037  0.72399690  0.74627455    -0.06270
H522        H  0.05960473  0.76963233  0.75477858     0.07500
H523        H  0.11361676  0.71216984  0.74461444     0.08700
Cu524      Cu  0.49030101  0.74001913  0.75021797     0.44170
Cu525      Cu  0.03612948  0.69159285  0.74250789     0.41990
Cu526      Cu  0.44494150  0.69095684  0.75731079     0.43880
N527        N  0.43728570  0.73743873  0.75161279    -0.34920
N528        N  0.42076859  0.71958037  0.75462805    -0.29170
C529        C  0.38677124  0.72318705  0.75390029    -0.05270
C530        C  0.38170410  0.74431068  0.75017486     0.06940
C531        C  0.41424187  0.75288343  0.74885926     0.00740
H532        H  0.36725287  0.71124868  0.75539852     0.08390
H533        H  0.42076175  0.76910641  0.74576908     0.07470
N534        N  0.47437691  0.66434473  0.75311396    -0.36370
N535        N  0.00736460  0.66462214  0.74619067    -0.28550
C536        C  0.01857885  0.64498038  0.74357770    -0.03790
C537        C  0.49143263  0.63166888  0.74946143     0.04820
C538        C  0.46381886  0.64450007  0.75548224     0.02910
H539        H  0.04465426  0.64070640  0.73801520     0.08020
H540        H  0.43792157  0.63976811  0.76107667     0.06850
N541        N  0.43040702  0.27999166  0.00496674    -0.27530
N542        N  0.44713753  0.26228659  0.00181040    -0.35390
C543        C  0.42427344  0.24672134  0.99929781     0.00810
C544        C  0.39163202  0.25508671  0.00086338     0.06830
C545        C  0.39646549  0.27619669  0.00449416    -0.06270
H546        H  0.43096935  0.23057349  0.99616011     0.07500
H547        H  0.37681849  0.28800177  0.00620278     0.08700
Cu548      Cu  0.00018658  0.26032169  0.99988468     0.44170
Cu549      Cu  0.45431735  0.30863717  0.00777263     0.41990
Cu550      Cu  0.04558840  0.30937406  0.99278824     0.43880
N551        N  0.05318703  0.26286036  0.99800349    -0.34920
N552        N  0.06975142  0.28070985  0.99507527    -0.29170
C553        C  0.10374479  0.27703549  0.99546494    -0.05270
C554        C  0.10874811  0.25587493  0.99884688     0.06940
C555        C  0.07617997  0.24735954  0.00033117     0.00740
H556        H  0.12330986  0.28894443  0.99394271     0.08390
H557        H  0.06960609  0.23113251  0.00327779     0.07470
N558        N  0.01597875  0.33594008  0.99698239    -0.36370
N559        N  0.48301429  0.33560269  0.00399009    -0.28550
C560        C  0.47168193  0.35521572  0.00658672    -0.03790
C561        C  0.99870186  0.36858533  0.00057118     0.04820
C562        C  0.02638579  0.35581044  0.99450963     0.02910
H563        H  0.44560260  0.35942826  0.01223269     0.08020
H564        H  0.05222859  0.36059795  0.98882142     0.06850
N565        N  0.42032264  0.28055222  0.75679645    -0.27530
N566        N  0.43673596  0.26280982  0.75285736    -0.35390
C567        C  0.41364395  0.24743705  0.74975039     0.00810
C568        C  0.38114390  0.25592093  0.75173102     0.06830
C569        C  0.38630031  0.27693074  0.75625908    -0.06270
H570        H  0.42010604  0.23134677  0.74578018     0.07500
H571        H  0.36681549  0.28880350  0.75832884     0.08700
Cu572      Cu  0.48963547  0.26035531  0.75018356     0.44170
Cu573      Cu  0.44479340  0.30911478  0.76000326     0.41990
Cu574      Cu  0.03474475  0.30885969  0.73957007     0.43880
N575        N  0.04256045  0.26254295  0.74725979    -0.34920
N576        N  0.05907184  0.28027914  0.74298908    -0.29170
C577        C  0.09306393  0.27661781  0.74338486    -0.05270
C578        C  0.09812489  0.25557427  0.74815256     0.06940
C579        C  0.06557361  0.24711082  0.75043210     0.00740
H580        H  0.11259912  0.28848469  0.74104801     0.08390
H581        H  0.05904066  0.23100519  0.75464584     0.07470
N582        N  0.00618986  0.33574057  0.74504131    -0.36370
N583        N  0.47408556  0.33584420  0.75461301    -0.28550
C584        C  0.46394198  0.35563691  0.75819940    -0.03790
C585        C  0.49076506  0.36867393  0.75002670     0.04820
C586        C  0.01706755  0.35545680  0.74168314     0.02910
H587        H  0.43879111  0.36019311  0.76603079     0.08020
H588        H  0.04240374  0.35983619  0.73394900     0.06850
O589        O  0.02461534  0.53129508  0.99986829    -0.73190
O590        O  0.02426611  0.46893713  0.00107143    -0.74170
O591        O  0.02480100  0.49945494  0.95532512    -0.62790
O592        O  0.02323719  0.50064923  0.54550188    -0.71200
O593        O  0.46679976  0.49946365  0.54440258    -0.70750
O594        O  0.46834867  0.50083601  0.95466367    -0.62000
O595        O  0.46754400  0.46885036  0.99964717    -0.74510
O596        O  0.46791358  0.53153096  0.99943554    -0.73290
Cu597      Cu  0.02618077  0.50011444  0.00045811     1.04560
Cu598      Cu  0.46570545  0.50020036  0.99950683     1.04330
C599        C  0.49642139  0.54139957  0.99959164     0.93010
C600        C  0.49595677  0.45892142  0.00051653     0.92150
C601        C  0.49672702  0.50005012  0.94048683     0.84300
C602        C  0.49463600  0.50005160  0.55946750     0.90570
O603        O  0.46514445  0.53136578  0.74905073    -0.73190
O604        O  0.46499653  0.46907873  0.75334612    -0.74170
O605        O  0.46732982  0.50159564  0.79574272    -0.62790
O606        O  0.46357616  0.49854073  0.70586394    -0.71200
O607        O  0.01993153  0.50161905  0.70438248    -0.70750
O608        O  0.02365237  0.49842014  0.79388732    -0.62000
O609        O  0.02131544  0.46889221  0.74717224    -0.74510
O610        O  0.02190757  0.53143531  0.75022589    -0.73290
Cu611      Cu  0.46327081  0.50019309  0.75102822     1.04560
Cu612      Cu  0.02367983  0.50012974  0.74890868     1.04330
C613        C  0.49348641  0.54136259  0.74951365     0.93010
C614        C  0.49300212  0.45904006  0.75023715     0.92150
C615        C  0.49611476  0.49970781  0.80923494     0.84300
C616        C  0.49135286  0.49969879  0.69070544     0.90570
C617        C  0.46833939  0.49182052  0.89061380    -0.02090
C618        C  0.49696635  0.49966706  0.90681801     0.07590
C619        C  0.02599688  0.50680921  0.89041620    -0.02200
C620        C  0.02607625  0.50652688  0.85877104    -0.02210
C621        C  0.49727070  0.49896206  0.84274661     0.07720
C622        C  0.46906078  0.49083202  0.85905826    -0.02400
Br623      Br  0.43206266  0.47637031  0.83876175    -0.00950
Br624      Br  0.42725194  0.48187665  0.91053888    -0.01020
Br625      Br  0.06637107  0.51694585  0.83811483    -0.00980
Br626      Br  0.06594856  0.51819913  0.91033735    -0.00970
C627        C  0.46381841  0.50666615  0.60872222    -0.02090
C628        C  0.49356323  0.49983000  0.59314641     0.07590
C629        C  0.02179054  0.49220011  0.61019199    -0.02200
C630        C  0.01989173  0.49093270  0.64171559    -0.02210
C631        C  0.49100147  0.49879977  0.65720325     0.07720
C632        C  0.46264028  0.50621676  0.64035885    -0.02400
Br633      Br  0.42146830  0.51613658  0.65989990    -0.00950
Br634      Br  0.42428225  0.51790568  0.58774091    -0.01020
Br635      Br  0.05624922  0.47637301  0.66305301    -0.00980
Br636      Br  0.06396823  0.48305500  0.59150379    -0.00970
C637        C  0.01801466  0.40252180  0.76485709    -0.02090
C638        C  0.49128045  0.39177387  0.75015878     0.07590
C639        C  0.46514080  0.40318105  0.73546777    -0.02200
C640        C  0.46573129  0.42508294  0.73541375    -0.02210
C641        C  0.49251575  0.43589643  0.75012512     0.07720
C642        C  0.01867101  0.42442515  0.76484023    -0.02400
Br643      Br  0.05473263  0.43841416  0.78671778    -0.00950
Br644      Br  0.05296569  0.38740293  0.78680878    -0.01020
Br645      Br  0.43047938  0.43995686  0.71340093    -0.00980
Br646      Br  0.42926351  0.38897313  0.71368275    -0.00970
C647        C  0.47260351  0.42432338  0.98327015    -0.02090
C648        C  0.99627461  0.43571500  0.00084027     0.07590
C649        C  0.02060102  0.42462259  0.51846260    -0.02200
C650        C  0.02125936  0.40273721  0.51845260    -0.02210
C651        C  0.99799417  0.39160956  0.00056901     0.07720
C652        C  0.47375444  0.40244665  0.98289810    -0.02400
Br653      Br  0.44327371  0.38742285  0.95650320    -0.00950
Br654      Br  0.43918380  0.43822761  0.95828117    -0.01020
Br655      Br  0.05306105  0.38813294  0.54447305    -0.00980
Br656      Br  0.05236908  0.43903375  0.54422690    -0.00970
C657        C  0.46876691  0.59751447  0.73135246    -0.02090
C658        C  0.49195249  0.60864385  0.74946079     0.07590
C659        C  0.01579097  0.59773274  0.76745690    -0.02200
C660        C  0.01661745  0.57584997  0.76723421    -0.02210
C661        C  0.49324151  0.56454975  0.74926961     0.07720
C662        C  0.46928318  0.57562511  0.73131421    -0.02400
Br663      Br  0.43799891  0.56124187  0.70506423    -0.00950
Br664      Br  0.43732141  0.61220968  0.70511904    -0.01020
Br665      Br  0.04899279  0.56176414  0.79306652    -0.00980
Br666      Br  0.04615893  0.61267127  0.79404019    -0.00970
C667        C  0.47289662  0.59778210  0.51598333    -0.02090
C668        C  0.49836702  0.60877260  0.99989763     0.07590
C669        C  0.02325181  0.59762500  0.98369887    -0.02200
C670        C  0.02277944  0.57572994  0.98370856    -0.02210
C671        C  0.49692736  0.56462794  0.99954320     0.07720
C672        C  0.47193099  0.57589474  0.51560853    -0.02400
Br673      Br  0.43679130  0.56193050  0.53870760    -0.00950
Br674      Br  0.44020510  0.61271100  0.54031132    -0.01020
Br675      Br  0.05715502  0.56147039  0.96048307    -0.00980
Br676      Br  0.05709293  0.61228662  0.95981072    -0.00970
C677        C  0.21236681  0.07593014  0.73838961    -0.02090
C678        C  0.24020080  0.06461861  0.75105139     0.07590
C679        C  0.26712951  0.07577573  0.76514072    -0.02200
C680        C  0.26691851  0.09769356  0.76533000    -0.02210
C681        C  0.24020714  0.10883689  0.75104888     0.07720
C682        C  0.21305096  0.09782350  0.73747630    -0.02400
Br683      Br  0.17760075  0.11255068  0.71548869    -0.00950
Br684      Br  0.17242310  0.06213183  0.72223202    -0.01020
Br685      Br  0.30248242  0.11230926  0.78695285    -0.00980
Br686      Br  0.30327830  0.06142582  0.78678913    -0.00970
C687        C  0.27073330  0.90232228  0.76241439    -0.02090
C688        C  0.24354951  0.89164652  0.74832159     0.07590
C689        C  0.21794266  0.90305851  0.73301355    -0.02200
C690        C  0.21908570  0.92495112  0.73229801    -0.02210
C691        C  0.24599395  0.93579917  0.74693930     0.07720
C692        C  0.27239679  0.92419462  0.76120716    -0.02400
Br693      Br  0.31114872  0.93766836  0.77983707    -0.00950
Br694      Br  0.30480233  0.88715100  0.78541119    -0.01020
Br695      Br  0.18466193  0.93961896  0.70896952    -0.00980
Br696      Br  0.18198003  0.88878825  0.71139796    -0.00970
C697        C  0.22055031  0.01056506  0.88945632    -0.02090
C698        C  0.24724489  0.00062837  0.90589458     0.07590
C699        C  0.27401106  0.99090124  0.88965986    -0.02200
C700        C  0.27361978  0.99067539  0.85798447    -0.02210
C701        C  0.24700124  0.00063915  0.84172677     0.07720
C702        C  0.22104551  0.01110295  0.85779708    -0.02400
Br703      Br  0.18721193  0.02784368  0.83676933    -0.00950
Br704      Br  0.18293697  0.02417451  0.90944350    -0.01020
Br705      Br  0.30944529  0.97576733  0.83737891    -0.00980
Br706      Br  0.31103232  0.97667698  0.91007804    -0.00970
C707        C  0.26362786  0.98543944  0.64050275    -0.02090
C708        C  0.24189496  0.99945474  0.65570742     0.07590
C709        C  0.22095596  0.01311668  0.63878929    -0.02200
C710        C  0.22249668  0.01326145  0.60720505    -0.02210
C711        C  0.24448665  0.99943645  0.59208633     0.07720
C712        C  0.26491228  0.98544277  0.60887761    -0.02400
Br713      Br  0.29348244  0.96546338  0.58860702    -0.00950
Br714      Br  0.29023802  0.96518825  0.66279341    -0.01020
Br715      Br  0.19595294  0.03349349  0.58477649    -0.00980
Br716      Br  0.19103203  0.03242901  0.65852935    -0.00970
C717        C  0.21964582  0.07599952  0.98604518    -0.02090
C718        C  0.24435114  0.06418161  0.00207171     0.07590
C719        C  0.26948303  0.07469210  0.51925740    -0.02200
C720        C  0.27073591  0.09658025  0.51929732    -0.02210
C721        C  0.24701920  0.10825789  0.00214845     0.07720
C722        C  0.22152858  0.09785540  0.98549672    -0.02400
Br723      Br  0.19038591  0.11338592  0.95996505    -0.00950
Br724      Br  0.18300286  0.06277881  0.96424109    -0.01020
Br725      Br  0.30406381  0.11050709  0.54426156    -0.00980
Br726      Br  0.30084970  0.05944964  0.54495573    -0.00970
C727        C  0.22391768  0.90240260  0.51671547    -0.02090
C728        C  0.24969363  0.89142326  0.00133361     0.07590
C729        C  0.27594735  0.90250894  0.98638998    -0.02200
C730        C  0.27650223  0.92438941  0.98683231    -0.02210
C731        C  0.24983741  0.93555796  0.00110968     0.07720
C732        C  0.22388672  0.92430579  0.51657793    -0.02400
Br733      Br  0.18943039  0.93854611  0.53993622    -0.00950
Br734      Br  0.18944248  0.88757218  0.53962330    -0.01020
Br735      Br  0.31418338  0.93847582  0.96724677    -0.00980
Br736      Br  0.31023072  0.88787420  0.96335226    -0.00970
O737        O  0.77657993  0.96928727  0.00077160    -0.73190
O738        O  0.77350164  0.03157074  0.99931517    -0.74170
O739        O  0.77425108  0.00057266  0.04504280    -0.62790
O740        O  0.77530914  0.00067472  0.45439330    -0.71200
O741        O  0.71869732  0.99986108  0.45390000    -0.70750
O742        O  0.71744192  0.99841638  0.04404196    -0.62000
O743        O  0.71675851  0.03061747  0.50033834    -0.74550
O744        O  0.71995855  0.96810571  0.49817436    -0.73290
Cu745      Cu  0.77688046  0.00054231  0.99981910     1.04560
Cu746      Cu  0.71626408  0.99922877  0.49902116     1.04330
C747        C  0.74880518  0.95874238  0.99989901     0.93010
C748        C  0.74475397  0.04102499  0.50044573     0.92150
C749        C  0.74550915  0.99943639  0.05880928     0.84300
C750        C  0.74711128  0.00038101  0.43963506     0.90570
O751        O  0.77025875  0.03208555  0.24738979    -0.73190
O752        O  0.77361482  0.96946385  0.24749113    -0.74170
O753        O  0.77094952  0.00085566  0.20280898    -0.62790
O754        O  0.77372785  0.00109181  0.29295331    -0.71200
O755        O  0.71715482  0.99881842  0.29459006    -0.70750
O756        O  0.71410148  0.99997346  0.20400024    -0.62000
O757        O  0.71697493  0.96853002  0.24919114    -0.74510
O758        O  0.71375946  0.03074431  0.25064817    -0.73290
Cu759      Cu  0.77409850  0.00089753  0.24765789     1.04560
Cu760      Cu  0.71354457  0.99950737  0.24958616     1.04330
C761        C  0.74140970  0.04140002  0.24959688     0.93010
C762        C  0.74565412  0.95901739  0.24791329     0.92150
C763        C  0.74219147  0.00018792  0.18908732     0.84300
C764        C  0.74597820  0.00010738  0.30818322     0.90570
N765        N  0.81969009  0.21914981  0.49485444    -0.27530
N766        N  0.80316196  0.23697120  0.49763065    -0.35390
C767        C  0.82618170  0.25245676  0.49988085     0.00810
C768        C  0.85872488  0.24396637  0.49852247     0.06830
C769        C  0.85368935  0.22283552  0.49528359    -0.06270
H770        H  0.81963636  0.26865419  0.50273914     0.07500
H771        H  0.87323603  0.21094638  0.49391333     0.08700
Cu772      Cu  0.75019696  0.23955977  0.49959214     0.44170
Cu773      Cu  0.79555374  0.19045873  0.49286307     0.41990
Cu774      Cu  0.70452995  0.19129625  0.50889446     0.43880
N775        N  0.69717238  0.23761577  0.50189237    -0.34920
N776        N  0.68046901  0.21988824  0.50554529    -0.29170
C777        C  0.64652131  0.22364872  0.50520521    -0.05270
C778        C  0.64166347  0.24476662  0.50116324     0.06940
C779        C  0.67429872  0.25316773  0.49920480     0.00740
H780        H  0.62688603  0.21182257  0.50731303     0.08390
H781        H  0.68097789  0.26932761  0.49568679     0.07470
N782        N  0.73304927  0.16430647  0.50542248    -0.36370
N783        N  0.76584868  0.16390167  0.49787786    -0.28550
C784        C  0.77595070  0.14400200  0.49549465    -0.03790
C785        C  0.74823723  0.13127479  0.50219242     0.04820
C786        C  0.72155617  0.14472041  0.50852341     0.02910
H787        H  0.80157079  0.13916587  0.48933036     0.08020
H788        H  0.69553236  0.14057857  0.51461001     0.06850
N789        N  0.67029869  0.22002041  0.25646469    -0.27530
N790        N  0.68672002  0.23780746  0.25235988    -0.35390
C791        C  0.66363356  0.25318394  0.24909981     0.00810
C792        C  0.63112205  0.24464781  0.25116019     0.06830
C793        C  0.63627556  0.22360458  0.25588100    -0.06270
H794        H  0.67010223  0.26931729  0.24504279     0.07500
H795        H  0.61679124  0.21169776  0.25811735     0.08700
Cu796      Cu  0.73965092  0.24024213  0.24987264     0.44170
Cu797      Cu  0.69487933  0.19151485  0.26011832     0.41990
Cu798      Cu  0.78489245  0.19173606  0.23987536     0.43880
N799        N  0.79259781  0.23801446  0.24738881    -0.34920
N800        N  0.80912125  0.22032450  0.24334755    -0.29170
C801        C  0.84311169  0.22399958  0.24397972    -0.05270
C802        C  0.84816079  0.24499769  0.24865828     0.06940
C803        C  0.81561059  0.25342364  0.25064480     0.00740
H804        H  0.86265014  0.21216645  0.24183290     0.08390
H805        H  0.80906824  0.26949333  0.25468323     0.07470
N806        N  0.75612728  0.16486605  0.24554965    -0.36370
N807        N  0.72404967  0.16480518  0.25518229    -0.28550
C808        C  0.71366676  0.14503498  0.25901387    -0.03790
C809        C  0.74024084  0.13194745  0.25084459     0.04820
C810        C  0.76672225  0.14512958  0.24233225     0.02910
H811        H  0.68847357  0.14053074  0.26695409     0.08020
H812        H  0.79195556  0.14071664  0.23453119     0.06850
N813        N  0.68044132  0.78018657  0.49345213    -0.27530
N814        N  0.69695993  0.76241670  0.49723948    -0.35390
C815        C  0.67393823  0.74695017  0.50014528     0.00810
C816        C  0.64140219  0.75543202  0.49819608     0.06830
C817        C  0.64645373  0.77651526  0.49390524    -0.06270
H818        H  0.68046304  0.73080174  0.50393869     0.07500
H819        H  0.62692623  0.78839604  0.49190214     0.08700
Cu820      Cu  0.74989420  0.76012125  0.49988146     0.44170
Cu821      Cu  0.70461980  0.80881093  0.49049663     0.41990
Cu822      Cu  0.79482888  0.80868466  0.51002577     0.43880
N823        N  0.80281897  0.76248600  0.50256361    -0.34920
N824        N  0.81926991  0.78022276  0.50659346    -0.29170
C825        C  0.85327930  0.77663660  0.50615495    -0.05270
C826        C  0.85840021  0.75564071  0.50161990     0.06940
C827        C  0.82588868  0.74712890  0.49951030     0.00740
H828        H  0.87277236  0.78851684  0.50837300     0.08390
H829        H  0.81940975  0.73103210  0.49553887     0.07470
N830        N  0.76573984  0.83545365  0.50530511    -0.36370
N831        N  0.73344920  0.83554898  0.49615994    -0.28550
C832        C  0.72281867  0.85532914  0.49316885    -0.03790
C833        C  0.74955924  0.86834054  0.50124176     0.04820
C834        C  0.77630198  0.85515492  0.50894461     0.02910
H835        H  0.69742252  0.85988782  0.48578640     0.08020
H836        H  0.80172146  0.85955033  0.51639553     0.06850
N837        N  0.67105465  0.78076882  0.25708465    -0.27530
N838        N  0.68743688  0.76298501  0.25339097    -0.35390
C839        C  0.66432406  0.74758727  0.25075223     0.00810
C840        C  0.63184339  0.75608625  0.25276536     0.06830
C841        C  0.63702330  0.77714128  0.25682083    -0.06270
H842        H  0.67076131  0.73145860  0.24707225     0.07500
H843        H  0.61754753  0.78902688  0.25880814     0.08700
Cu844      Cu  0.74029599  0.76036341  0.25040187     0.44170
Cu845      Cu  0.69552528  0.80936279  0.25978846     0.41990
Cu846      Cu  0.78551605  0.80856003  0.23945374     0.43880
N847        N  0.79321005  0.76232678  0.24706457    -0.34920
N848        N  0.80977710  0.78003430  0.24277514    -0.29170
C849        C  0.84374688  0.77633776  0.24292594    -0.05270
C850        C  0.84874276  0.75528084  0.24750198     0.06940
C851        C  0.81617781  0.74684839  0.24995279     0.00740
H852        H  0.86330516  0.78818135  0.24048401     0.08390
H853        H  0.80961729  0.73074076  0.25411551     0.07470
N854        N  0.75731040  0.83552730  0.24457379    -0.36370
N855        N  0.72518977  0.83591244  0.25407737    -0.28550
C856        C  0.71538904  0.85580974  0.25724999    -0.03790
C857        C  0.74249709  0.86857400  0.24888178     0.04820
C858        C  0.76855130  0.85511862  0.24084314     0.02910
H859        H  0.69027739  0.86061861  0.26485927     0.08020
H860        H  0.79395913  0.85925143  0.23300820     0.06850
N861        N  0.56933926  0.71973755  0.50577095    -0.27530
N862        N  0.55286108  0.73754831  0.50224322    -0.35390
C863        C  0.57591937  0.75299165  0.49932990     0.00810
C864        C  0.60843613  0.74446399  0.50102609     0.06830
C865        C  0.60334098  0.72337004  0.50516669    -0.06270
H866        H  0.56942395  0.76916782  0.49576310     0.07500
H867        H  0.62284422  0.71146238  0.50699900     0.08700
Cu868      Cu  0.99990883  0.74001895  0.50007668     0.44170
Cu869      Cu  0.54507265  0.69112611  0.50877700     0.41990
Cu870      Cu  0.95456163  0.69157271  0.49060242     0.43880
N871        N  0.94693238  0.73781900  0.49770344    -0.34920
N872        N  0.93037726  0.72009979  0.49384834    -0.29170
C873        C  0.89639745  0.72373729  0.49435715    -0.05270
C874        C  0.89137552  0.74475048  0.49877150     0.06940
C875        C  0.92393397  0.75322624  0.50073275     0.00740
H876        H  0.87685492  0.71187388  0.49228132     0.08390
H877        H  0.93048732  0.76932959  0.50456046     0.07470
N878        N  0.98323931  0.66468199  0.49545375    -0.36370
N879        N  0.51576087  0.66447542  0.50394969    -0.28550
C880        C  0.52612941  0.64465357  0.50708984    -0.03790
C881        C  0.99894019  0.63174526  0.49982362     0.04820
C882        C  0.97221825  0.64501658  0.49245381     0.02910
H883        H  0.55165016  0.63999294  0.51399411     0.08020
H884        H  0.94653146  0.64070346  0.48562205     0.06850
N885        N  0.56005239  0.72024551  0.24555616    -0.27530
N886        N  0.54336274  0.73796460  0.24874201    -0.35390
C887        C  0.56626551  0.75348657  0.25156399     0.00810
C888        C  0.59888880  0.74508339  0.25013864     0.06830
C889        C  0.59400055  0.72399687  0.24627454    -0.06270
H890        H  0.55960480  0.76963227  0.25477843     0.07500
H891        H  0.61361696  0.71216981  0.24461449     0.08700
Cu892      Cu  0.99030115  0.74001907  0.25021795     0.44170
Cu893      Cu  0.53612992  0.69159269  0.24250811     0.41990
Cu894      Cu  0.94494190  0.69095690  0.25731089     0.43880
N895        N  0.93728585  0.73743871  0.25161275    -0.34920
N896        N  0.92076877  0.71958035  0.25462802    -0.29170
C897        C  0.88677141  0.72318699  0.25390027    -0.05270
C898        C  0.88170422  0.74431062  0.25017483     0.06940
C899        C  0.91424199  0.75288339  0.24885921     0.00740
H900        H  0.86725307  0.71124860  0.25539853     0.08390
H901        H  0.92076183  0.76910638  0.24576903     0.07470
N902        N  0.97437735  0.66434476  0.25311472    -0.36370
N903        N  0.50736506  0.66462200  0.24619149    -0.28550
C904        C  0.51857918  0.64498016  0.24357909    -0.03790
C905        C  0.99143281  0.63166882  0.24946316     0.04820
C906        C  0.96381916  0.64450019  0.25548351     0.02910
H907        H  0.54465455  0.64070602  0.23801665     0.08020
H908        H  0.93792177  0.63976837  0.26107789     0.06850
N909        N  0.93041623  0.27993268  0.50499222    -0.27530
N910        N  0.94714041  0.26222731  0.50181865    -0.35390
C911        C  0.92427027  0.24666681  0.49929283     0.00810
C912        C  0.89163330  0.25503749  0.50086738     0.06830
C913        C  0.89647423  0.27614409  0.50451763    -0.06270
H914        H  0.93095885  0.23051960  0.49613755     0.07500
H915        H  0.87683268  0.28795182  0.50623495     0.08700
Cu916      Cu  0.50018685  0.26026071  0.49988104     0.44170
Cu917      Cu  0.95432783  0.30857168  0.50780789     0.41990
Cu918      Cu  0.54557301  0.30931915  0.49275400     0.43880
N919        N  0.55318398  0.26280884  0.49799231    -0.34920
N920        N  0.56974064  0.28066000  0.49505170    -0.29170
C921        C  0.60373507  0.27699217  0.49544467    -0.05270
C922        C  0.60874691  0.25583413  0.49884195     0.06940
C923        C  0.57618366  0.24731295  0.50033147     0.00740
H924        H  0.62329448  0.28890419  0.49391642     0.08390
H925        H  0.56961753  0.23108584  0.50329114     0.07470
N926        N  0.51596166  0.33587960  0.49696393    -0.36370
N927        N  0.98300453  0.33553731  0.50399588    -0.28550
C928        C  0.97166368  0.35514741  0.50659606    -0.03790
C929        C  0.49867199  0.36851934  0.50056013     0.04820
C930        C  0.52635779  0.35575098  0.49448184     0.02910
H931        H  0.94558767  0.35935607  0.51225965     0.08020
H932        H  0.55219410  0.36054343  0.48877952     0.06850
N933        N  0.92032281  0.28055181  0.25679672    -0.27530
N934        N  0.93673606  0.26280944  0.25285729    -0.35390
C935        C  0.91364399  0.24743672  0.24975010     0.00810
C936        C  0.88114397  0.25592065  0.25173093     0.06830
C937        C  0.88630047  0.27693041  0.25625932    -0.06270
H938        H  0.92010599  0.23134646  0.24577962     0.07500
H939        H  0.86681572  0.28880318  0.25832936     0.08700
Cu940      Cu  0.98963559  0.26035514  0.25018340     0.44170
Cu941      Cu  0.94479381  0.30911413  0.26000415     0.41990
Cu942      Cu  0.53474509  0.30885988  0.23957063     0.43880
N943        N  0.54256056  0.26254299  0.24725969    -0.34920
N944        N  0.55907196  0.28027920  0.24298918    -0.29170
C945        C  0.59306405  0.27661785  0.24338496    -0.05270
C946        C  0.59812498  0.25557429  0.24815248     0.06940
C947        C  0.56557370  0.24711084  0.25043189     0.00740
H948        H  0.61259926  0.28848474  0.24104830     0.08390
H949        H  0.55904073  0.23100520  0.25464548     0.07470
N950        N  0.50618961  0.33574052  0.24504236    -0.36370
N951        N  0.97408535  0.33584367  0.25461419    -0.28550
C952        C  0.96394066  0.35563619  0.25819997    -0.03790
C953        C  0.99076283  0.36867363  0.25002658     0.04820
C954        C  0.51706617  0.35545694  0.24168351     0.02910
H955        H  0.93878938  0.36019199  0.26603088     0.08020
H956        H  0.54240191  0.35983677  0.23394874     0.06850
O957        O  0.52465924  0.53120420  0.49987299    -0.73190
O958        O  0.52423451  0.46885075  0.50106659    -0.74170
O959        O  0.52479766  0.49936873  0.45532169    -0.62790
O960        O  0.52322770  0.50074038  0.04550366    -0.71200
O961        O  0.96679064  0.49953051  0.04440354    -0.70750
O962        O  0.96834561  0.50076983  0.45466364    -0.62000
O963        O  0.96751103  0.46878325  0.49964586    -0.74510
O964        O  0.96795893  0.53146335  0.49943666    -0.73290
Cu965      Cu  0.52618524  0.50002427  0.50045586     1.04560
Cu966      Cu  0.96570982  0.50013383  0.49950642     1.04330
C967        C  0.99647772  0.54132060  0.49959903     0.93010
C968        C  0.99591540  0.45884567  0.50051640     0.92150
C969        C  0.99672242  0.49997741  0.44048550     0.84300
C970        C  0.99462665  0.50012751  0.05946837     0.90570
O971        O  0.96513448  0.53136654  0.24905795    -0.73190
O972        O  0.96498432  0.46907819  0.25333696    -0.74170
O973        O  0.96731545  0.50158863  0.29574183    -0.62790
O974        O  0.96356311  0.49854854  0.20586299    -0.71200
O975        O  0.51991883  0.50162427  0.20438180    -0.70750
O976        O  0.52363826  0.49841306  0.29388678    -0.62000
O977        O  0.52130349  0.46889227  0.24716484    -0.74510
O978        O  0.52189765  0.53143414  0.25023219    -0.73290
Cu979      Cu  0.96325848  0.50019331  0.25102724     1.04560
Cu980      Cu  0.52366771  0.50012900  0.24890811     1.04330
C981        C  0.99347751  0.54136239  0.24952085     0.93010
C982        C  0.99299054  0.45903982  0.25022886     0.92150
C983        C  0.99609952  0.49969684  0.30923396     0.84300
C984        C  0.99133912  0.49970949  0.19070436     0.90570
C985        C  0.96833261  0.49176575  0.39060768    -0.02090
C986        C  0.99695860  0.49960768  0.40681696     0.07590
C987        C  0.52598146  0.50676580  0.39042048    -0.02200
C988        C  0.52605640  0.50650142  0.35877511    -0.02210
C989        C  0.99725346  0.49893916  0.34274497     0.07720
C990        C  0.96904744  0.49079721  0.35905032    -0.02400
Br991      Br  0.93204339  0.47634979  0.33874080    -0.00950
Br992      Br  0.92725766  0.48180114  0.41053005    -0.01020
Br993      Br  0.56633810  0.51694556  0.33812637    -0.00980
Br994      Br  0.56592472  0.51815659  0.41035232    -0.00970
C995        C  0.96380973  0.50672164  0.10872760    -0.02090
C996        C  0.99355463  0.49989322  0.09314644     0.07590
C997        C  0.52177838  0.49225093  0.11018425    -0.02200
C998        C  0.51987683  0.49096532  0.14170624    -0.02210
C999        C  0.99098553  0.49882369  0.15720135     0.07720
C1000       C  0.96262455  0.50624891  0.14036352    -0.02400
Br1001     Br  0.92143953  0.51614270  0.15991114    -0.00950
Br1002     Br  0.92428700  0.51798428  0.08775391    -0.01020
Br1003     Br  0.55622872  0.47639027  0.16302868    -0.00980
Br1004     Br  0.56395293  0.48311163  0.09148568    -0.00970
C1005       C  0.51800887  0.40252310  0.26485397    -0.02090
C1006       C  0.99127596  0.39177357  0.25015644     0.07590
C1007       C  0.96513509  0.40317914  0.23546442    -0.02200
C1008       C  0.96572311  0.42508105  0.23540852    -0.02210
C1009       C  0.99250639  0.43589617  0.25011873     0.07720
C1010       C  0.51866270  0.42442648  0.26483536    -0.02400
Br1011     Br  0.55472214  0.43841752  0.28671310    -0.00950
Br1012     Br  0.55296153  0.38740632  0.28680684    -0.01020
Br1013     Br  0.93046928  0.43995283  0.21339523    -0.00980
Br1014     Br  0.92925946  0.38896900  0.21368047    -0.00970
C1015       C  0.97255904  0.42425086  0.48326657    -0.02090
C1016       C  0.49621791  0.43564130  0.50084951     0.07590
C1017       C  0.52067282  0.42469490  0.01843651    -0.02200
C1018       C  0.52131783  0.40280815  0.01843830    -0.02210
C1019       C  0.49795376  0.39154036  0.50056544     0.07720
C1020       C  0.97371655  0.40237498  0.48289012    -0.02400
Br1021     Br  0.94324962  0.38734801  0.45648687    -0.00950
Br1022     Br  0.93914711  0.43815530  0.45827145    -0.01020
Br1023     Br  0.55312439  0.38820582  0.04445627    -0.00980
Br1024     Br  0.55248900  0.43910551  0.04415682    -0.00970
C1025       C  0.96876573  0.59751472  0.23135483    -0.02090
C1026       C  0.99195190  0.60864379  0.24946292     0.07590
C1027       C  0.51578976  0.59773236  0.26745929    -0.02200
C1028       C  0.51661390  0.57584951  0.26723813    -0.02210
C1029       C  0.99323548  0.56454959  0.24927556     0.07720
C1030       C  0.96927952  0.57562536  0.23131832    -0.02400
Br1031     Br  0.93799670  0.56124262  0.20506674    -0.00950
Br1032     Br  0.93732315  0.61221030  0.20511910    -0.01020
Br1033     Br  0.54899120  0.56176335  0.29306813    -0.00980
Br1034     Br  0.54616030  0.61267061  0.29404061    -0.00970
C1035       C  0.97282815  0.59785680  0.01599091    -0.02090
C1036       C  0.99844021  0.60869651  0.49989243     0.07590
C1037       C  0.52334724  0.59754436  0.48372378    -0.02200
C1038       C  0.52288516  0.57564849  0.48375360    -0.02210
C1039       C  0.99700739  0.56454940  0.49956170     0.07720
C1040       C  0.97186130  0.57596963  0.01560758    -0.02400
Br1041     Br  0.93672988  0.56200113  0.03870903    -0.00950
Br1042     Br  0.94014356  0.61278500  0.04032681    -0.01020
Br1043     Br  0.55732646  0.56138528  0.46060462    -0.00980
Br1044     Br  0.55720631  0.61219820  0.45984508    -0.00970
C1045       C  0.71236660  0.07593011  0.23839047    -0.02090
C1046       C  0.74020085  0.06461856  0.25105178     0.07590
C1047       C  0.76712979  0.07577570  0.26514074    -0.02200
C1048       C  0.76691878  0.09769354  0.26533001    -0.02210
C1049       C  0.74020733  0.10883686  0.25104900     0.07720
C1050       C  0.71305098  0.09782346  0.23747672    -0.02400
Br1051     Br  0.67760082  0.11255059  0.21548894    -0.00950
Br1052     Br  0.67242182  0.06213197  0.22223472    -0.01020
Br1053     Br  0.80248276  0.11230925  0.28695274    -0.00980
Br1054     Br  0.80327877  0.06142579  0.28678889    -0.00970
C1055       C  0.77073340  0.90232216  0.26241419    -0.02090
C1056       C  0.74354952  0.89164644  0.24832149     0.07590
C1057       C  0.71794265  0.90305844  0.23301351    -0.02200
C1058       C  0.71908575  0.92495105  0.23229794    -0.02210
C1059       C  0.74599418  0.93579907  0.24693902     0.07720
C1060       C  0.77239704  0.92419449  0.26120678    -0.02400
Br1061     Br  0.81114933  0.93766815  0.27983615    -0.00950
Br1062     Br  0.80480233  0.88715088  0.28541111    -0.01020
Br1063     Br  0.68466186  0.93961894  0.20896966    -0.00980
Br1064     Br  0.68197992  0.88878822  0.21139801    -0.00970
C1065       C  0.72055088  0.01055721  0.38945796    -0.02090
C1066       C  0.74724443  0.00061826  0.40589474     0.07590
C1067       C  0.77401205  0.99089388  0.38965853    -0.02200
C1068       C  0.77362207  0.99067169  0.35798306    -0.02210
C1069       C  0.74700335  0.00063649  0.34172684     0.07720
C1070       C  0.72104731  0.01109875  0.35779880    -0.02400
Br1071     Br  0.68721510  0.02784209  0.33677360    -0.00950
Br1072     Br  0.68293735  0.02416474  0.40944716    -0.01020
Br1073     Br  0.80944989  0.97576718  0.33737539    -0.00980
Br1074     Br  0.81103370  0.97666835  0.41007464    -0.00970
C1075       C  0.76362659  0.98544327  0.14050010    -0.02090
C1076       C  0.74189355  0.99945719  0.15570726     0.07590
C1077       C  0.72095410  0.01312024  0.13879148    -0.02200
C1078       C  0.72249574  0.01326835  0.10720739    -0.02210
C1079       C  0.74448729  0.99944571  0.09208615     0.07720
C1080       C  0.76491168  0.98544975  0.10887484    -0.02400
Br1081     Br  0.79348004  0.96547129  0.08860047    -0.00950
Br1082     Br  0.79023601  0.96518996  0.16278748    -0.01020
Br1083     Br  0.69595012  0.03350149  0.08478258    -0.00980
Br1084     Br  0.69102806  0.03242978  0.15853449    -0.00970
C1085       C  0.71964102  0.07598146  0.48604790    -0.02090
C1086       C  0.74434761  0.06416353  0.50207308     0.07590
C1087       C  0.76948532  0.07471062  0.01925663    -0.02200
C1088       C  0.77073801  0.09659917  0.01929660    -0.02210
C1089       C  0.74701588  0.10823811  0.50215048     0.07720
C1090       C  0.72152420  0.09783691  0.48549968    -0.02400
Br1091     Br  0.69038091  0.11336952  0.45997083    -0.00950
Br1092     Br  0.68299498  0.06276222  0.46424659    -0.01020
Br1093     Br  0.80406370  0.11052452  0.04426441    -0.00980
Br1094     Br  0.80085066  0.05946756  0.04495575    -0.00970
C1095       C  0.72390863  0.90242435  0.01671262    -0.02090
C1096       C  0.74970323  0.89140123  0.50133551     0.07590
C1097       C  0.77595241  0.90248966  0.48638824    -0.02200
C1098       C  0.77650362  0.92437075  0.48682998    -0.02210
C1099       C  0.74983897  0.93553854  0.50110878     0.07720
C1100       C  0.72388215  0.92432691  0.01657762    -0.02400
Br1101     Br  0.68942884  0.93856778  0.03993826    -0.00950
Br1102     Br  0.68942882  0.88759303  0.03961416    -0.01020
Br1103     Br  0.81417907  0.93846000  0.46723981    -0.00980
Br1104     Br  0.81023371  0.88785902  0.46334319    -0.00970
O1105       O  0.77657902  0.96926979  0.50077152    -0.73190
O1106       O  0.77349884  0.03155374  0.49931532    -0.74170
O1107       O  0.77424924  0.00055747  0.54504251    -0.62790
O1108       O  0.77531109  0.00069007  0.95439278    -0.71200
O1109       O  0.71869923  0.99987755  0.95390028    -0.70750
O1110       O  0.71744010  0.99840081  0.54404265    -0.62000
O1111       O  0.71676138  0.03063508  0.00033853    -0.74550
O1112       O  0.71995921  0.96812417  0.99817358    -0.73290
Cu1113     Cu  0.77687849  0.00052581  0.49981918     1.04560
Cu1114     Cu  0.71626595  0.99924607  0.99902093     1.04330
C1115       C  0.74880494  0.95872399  0.49989902     0.93010
C1116       C  0.74475707  0.04104251  0.00044540     0.92150
C1117       C  0.74550750  0.99942287  0.55880948     0.84300
C1118       C  0.74711293  0.00039530  0.93963493     0.90570
O1119       O  0.77025864  0.03208560  0.74738986    -0.73190
O1120       O  0.77361451  0.96946397  0.74749185    -0.74170
O1121       O  0.77094985  0.00085552  0.70280944    -0.62790
O1122       O  0.77372687  0.00109226  0.79295375    -0.71200
O1123       O  0.71715380  0.99881883  0.79458966    -0.70750
O1124       O  0.71410176  0.99997330  0.70399979    -0.62000
O1125       O  0.71697459  0.96853012  0.74919103    -0.74510
O1126       O  0.71375929  0.03074442  0.75064752    -0.73290
Cu1127     Cu  0.77409824  0.00089764  0.74765833     1.04560
Cu1128     Cu  0.71354426  0.99950749  0.74958574     1.04330
C1129       C  0.74140959  0.04140010  0.74959655     0.93010
C1130       C  0.74565381  0.95901750  0.74791360     0.92150
C1131       C  0.74219209  0.00018739  0.68908735     0.84300
C1132       C  0.74597685  0.00010825  0.80818323     0.90570
N1133       N  0.81970286  0.21917995  0.99487792    -0.27530
N1134       N  0.80316631  0.23699950  0.99764280    -0.35390
C1135       C  0.82617870  0.25249029  0.99988370     0.00810
C1136       C  0.85872732  0.24400652  0.99853080     0.06830
C1137       C  0.85370114  0.22287285  0.99530537    -0.06270
H1138       H  0.81962475  0.26868758  0.00272930     0.07500
H1139       H  0.87325411  0.21098721  0.99393952     0.08700
Cu1140     Cu  0.75019727  0.23957975  0.99959376     0.44170
Cu1141     Cu  0.79557009  0.19048370  0.99289138     0.41990
Cu1142     Cu  0.70451987  0.19131890  0.00887039     0.43880
N1143       N  0.69716920  0.23764062  0.00188349    -0.34920
N1144       N  0.68045972  0.21991415  0.00552600    -0.29170
C1145       C  0.64651257  0.22367974  0.00518720    -0.05270
C1146       C  0.64166145  0.24479995  0.00115730     0.06940
C1147       C  0.67430077  0.25319638  0.99920409     0.00740
H1148       H  0.62687272  0.21185601  0.00729077     0.08390
H1149       H  0.68098629  0.26935643  0.99569780     0.07470
N1150       N  0.73304961  0.16432934  0.00541290    -0.36370
N1151       N  0.76585528  0.16392500  0.99788722    -0.28550
C1152       C  0.77595839  0.14402476  0.99550817    -0.03790
C1153       C  0.74824046  0.13129619  0.00219015     0.04820
C1154       C  0.72155531  0.14474268  0.00850720     0.02910
H1155       H  0.80158293  0.13918896  0.98935729     0.08020
H1156       H  0.69552756  0.14060092  0.01458098     0.06850
N1157       N  0.67029866  0.22002043  0.75646470    -0.27530
N1158       N  0.68671998  0.23780748  0.75235986    -0.35390
C1159       C  0.66363348  0.25318395  0.74909981     0.00810
C1160       C  0.63112199  0.24464780  0.75116024     0.06830
C1161       C  0.63627553  0.22360458  0.75588106    -0.06270
H1162       H  0.67010213  0.26931730  0.74504277     0.07500
H1163       H  0.61679122  0.21169775  0.75811744     0.08700
Cu1164     Cu  0.73965089  0.24024214  0.74987259     0.44170
Cu1165     Cu  0.69487935  0.19151489  0.76011832     0.41990
Cu1166     Cu  0.78489258  0.19173609  0.73987546     0.43880
N1167       N  0.79259781  0.23801453  0.74738884    -0.34920
N1168       N  0.80912133  0.22032458  0.74334765    -0.29170
C1169       C  0.84311176  0.22399974  0.74397987    -0.05270
C1170       C  0.84816076  0.24499787  0.74865839     0.06940
C1171       C  0.81561051  0.25342375  0.75064483     0.00740
H1172       H  0.86265028  0.21216664  0.74183309     0.08390
H1173       H  0.80906807  0.26949344  0.75468319     0.07470
N1174       N  0.75612729  0.16486607  0.74554966    -0.36370
N1175       N  0.72404966  0.16480523  0.75518225    -0.28550
C1176       C  0.71366667  0.14503503  0.75901377    -0.03790
C1177       C  0.74024071  0.13194748  0.75084449     0.04820
C1178       C  0.76672219  0.14512959  0.74233223     0.02910
H1179       H  0.68847345  0.14053082  0.76695394     0.08020
H1180       H  0.79195550  0.14071663  0.73453119     0.06850
N1181       N  0.68044560  0.78021580  0.99342311    -0.27530
N1182       N  0.69695779  0.76244532  0.99722603    -0.35390
C1183       C  0.67393065  0.74698300  0.00014360     0.00810
C1184       C  0.64139873  0.75546932  0.99818638     0.06830
C1185       C  0.64645749  0.77654971  0.99387769    -0.06270
H1186       H  0.68044885  0.73083543  0.00395447     0.07500
H1187       H  0.62693485  0.78843291  0.99186814     0.08700
Cu1188     Cu  0.74988832  0.76014644  0.99988420     0.44170
Cu1189     Cu  0.70462510  0.80883707  0.99046171     0.41990
Cu1190     Cu  0.79479786  0.80871389  0.01007386     0.43880
N1191       N  0.80280840  0.76252194  0.00258162    -0.34920
N1192       N  0.81924780  0.78026026  0.00663052    -0.29170
C1193       C  0.85325886  0.77668398  0.00618772    -0.05270
C1194       C  0.85839265  0.75569284  0.00162918     0.06940
C1195       C  0.82588817  0.74717281  0.99951134     0.00740
H1196       H  0.87274345  0.78856852  0.00841382     0.08390
H1197       H  0.81942073  0.73107693  0.99551890     0.07470
N1198       N  0.76572016  0.83548012  0.00532352    -0.36370
N1199       N  0.73344088  0.83557525  0.99614886    -0.28550
C1200       C  0.72281396  0.85535500  0.99314669    -0.03790
C1201       C  0.74954711  0.86836478  0.00124076     0.04820
C1202       C  0.77628054  0.85518053  0.00896852     0.02910
H1203       H  0.69742594  0.85991440  0.98574357     0.08020
H1204       H  0.80169238  0.85957612  0.01643914     0.06850
N1205       N  0.67105456  0.78076885  0.75708466    -0.27530
N1206       N  0.68743679  0.76298503  0.75339099    -0.35390
C1207       C  0.66432396  0.74758729  0.75075228     0.00810
C1208       C  0.63184329  0.75608627  0.75276543     0.06830
C1209       C  0.63702321  0.77714131  0.75682086    -0.06270
H1210       H  0.67076120  0.73145861  0.74707232     0.07500
H1211       H  0.61754744  0.78902691  0.75880818     0.08700
Cu1212     Cu  0.74029589  0.76036344  0.75040187     0.44170
Cu1213     Cu  0.69552520  0.80936284  0.75978842     0.41990
Cu1214     Cu  0.78551594  0.80856009  0.73945372     0.43880
N1215       N  0.79320994  0.76232684  0.74706455    -0.34920
N1216       N  0.80977699  0.78003436  0.74277512    -0.29170
C1217       C  0.84374677  0.77633782  0.74292593    -0.05270
C1218       C  0.84874265  0.75528091  0.74750199     0.06940
C1219       C  0.81617770  0.74684846  0.74995280     0.00740
H1220       H  0.86330505  0.78818142  0.74048401     0.08390
H1221       H  0.80961718  0.73074083  0.75411552     0.07470
N1222       N  0.75731034  0.83552737  0.74457383    -0.36370
N1223       N  0.72518970  0.83591251  0.75407740    -0.28550
C1224       C  0.71538900  0.85580981  0.75725005    -0.03790
C1225       C  0.74249708  0.86857408  0.74888189     0.04820
C1226       C  0.76855128  0.85511869  0.74084324     0.02910
H1227       H  0.69027735  0.86061868  0.76485932     0.08020
H1228       H  0.79395911  0.85925150  0.73300830     0.06850
N1229       N  0.56931822  0.71979513  0.00580265    -0.27530
N1230       N  0.55285109  0.73760835  0.00225939    -0.35390
C1231       C  0.57591825  0.75304489  0.99933042     0.00810
C1232       C  0.60842873  0.74451005  0.00103229     0.06830
C1233       C  0.60332182  0.72341935  0.00519320    -0.06270
H1234       H  0.56943270  0.76922083  0.99574655     0.07500
H1235       H  0.62281782  0.71150785  0.00703267     0.08700
Cu1236     Cu  0.99990386  0.74009412  0.00008270     0.44170
Cu1237     Cu  0.54504086  0.69118876  0.00882315     0.41990
Cu1238     Cu  0.95456674  0.69165316  0.99056382     0.43880
N1239       N  0.94693123  0.73789412  0.99768963    -0.34920
N1240       N  0.93038334  0.72017510  0.99381299    -0.29170
C1241       C  0.89640317  0.72380580  0.99432287    -0.05270
C1242       C  0.89137274  0.74481451  0.99876144     0.06940
C1243       C  0.92392616  0.75329581  0.00073457     0.00740
H1244       H  0.87686676  0.71193956  0.99223788     0.08390
H1245       H  0.93047127  0.76939757  0.00458587     0.07470
N1246       N  0.98320962  0.66475768  0.99545979    -0.36370
N1247       N  0.51572154  0.66454337  0.00398261    -0.28550
C1248       C  0.52607255  0.64471899  0.00713251    -0.03790
C1249       C  0.99887925  0.63181918  0.99984808     0.04820
C1250       C  0.97217454  0.64509594  0.99245683     0.02910
H1251       H  0.55158549  0.64005065  0.01404820     0.08020
H1252       H  0.94649259  0.64078924  0.98560272     0.06850
N1253       N  0.56005220  0.72024558  0.74555616    -0.27530
N1254       N  0.54336260  0.73796468  0.74874207    -0.35390
C1255       C  0.56626541  0.75348663  0.75156410     0.00810
C1256       C  0.59888867  0.74508342  0.75013872     0.06830
C1257       C  0.59400037  0.72399690  0.74627455    -0.06270
H1258       H  0.55960473  0.76963233  0.75477858     0.07500
H1259       H  0.61361675  0.71216984  0.74461444     0.08700
Cu1260     Cu  0.99030101  0.74001913  0.75021797     0.44170
Cu1261     Cu  0.53612948  0.69159285  0.74250789     0.41990
Cu1262     Cu  0.94494150  0.69095684  0.75731079     0.43880
N1263       N  0.93728570  0.73743873  0.75161279    -0.34920
N1264       N  0.92076859  0.71958037  0.75462805    -0.29170
C1265       C  0.88677124  0.72318705  0.75390030    -0.05270
C1266       C  0.88170410  0.74431068  0.75017486     0.06940
C1267       C  0.91424187  0.75288343  0.74885926     0.00740
H1268       H  0.86725287  0.71124867  0.75539853     0.08390
H1269       H  0.92076175  0.76910641  0.74576908     0.07470
N1270       N  0.97437691  0.66434473  0.75311396    -0.36370
N1271       N  0.50736460  0.66462214  0.74619067    -0.28550
C1272       C  0.51857885  0.64498038  0.74357770    -0.03790
C1273       C  0.99143263  0.63166888  0.74946143     0.04820
C1274       C  0.96381887  0.64450007  0.75548224     0.02910
H1275       H  0.54465426  0.64070640  0.73801520     0.08020
H1276       H  0.93792157  0.63976811  0.76107667     0.06850
N1277       N  0.93040702  0.27999166  0.00496674    -0.27530
N1278       N  0.94713753  0.26228659  0.00181041    -0.35390
C1279       C  0.92427344  0.24672134  0.99929781     0.00810
C1280       C  0.89163202  0.25508671  0.00086338     0.06830
C1281       C  0.89646549  0.27619670  0.00449416    -0.06270
H1282       H  0.93096935  0.23057349  0.99616011     0.07500
H1283       H  0.87681849  0.28800177  0.00620278     0.08700
Cu1284     Cu  0.50018658  0.26032169  0.99988468     0.44170
Cu1285     Cu  0.95431735  0.30863717  0.00777263     0.41990
Cu1286     Cu  0.54558840  0.30937406  0.99278824     0.43880
N1287       N  0.55318703  0.26286036  0.99800349    -0.34920
N1288       N  0.56975142  0.28070985  0.99507528    -0.29170
C1289       C  0.60374479  0.27703549  0.99546494    -0.05270
C1290       C  0.60874811  0.25587493  0.99884688     0.06940
C1291       C  0.57617997  0.24735954  0.00033117     0.00740
H1292       H  0.62330986  0.28894443  0.99394271     0.08390
H1293       H  0.56960609  0.23113250  0.00327779     0.07470
N1294       N  0.51597875  0.33594008  0.99698239    -0.36370
N1295       N  0.98301429  0.33560269  0.00399010    -0.28550
C1296       C  0.97168193  0.35521572  0.00658672    -0.03790
C1297       C  0.49870186  0.36858533  0.00057118     0.04820
C1298       C  0.52638579  0.35581043  0.99450963     0.02910
H1299       H  0.94560260  0.35942826  0.01223269     0.08020
H1300       H  0.55222859  0.36059795  0.98882142     0.06850
N1301       N  0.92032264  0.28055222  0.75679645    -0.27530
N1302       N  0.93673595  0.26280982  0.75285736    -0.35390
C1303       C  0.91364395  0.24743704  0.74975039     0.00810
C1304       C  0.88114390  0.25592092  0.75173102     0.06830
C1305       C  0.88630031  0.27693074  0.75625908    -0.06270
H1306       H  0.92010604  0.23134677  0.74578018     0.07500
H1307       H  0.86681549  0.28880350  0.75832884     0.08700
Cu1308     Cu  0.98963547  0.26035531  0.75018356     0.44170
Cu1309     Cu  0.94479340  0.30911478  0.76000326     0.41990
Cu1310     Cu  0.53474475  0.30885969  0.73957007     0.43880
N1311       N  0.54256045  0.26254295  0.74725979    -0.34920
N1312       N  0.55907184  0.28027914  0.74298908    -0.29170
C1313       C  0.59306393  0.27661781  0.74338486    -0.05270
C1314       C  0.59812489  0.25557427  0.74815256     0.06940
C1315       C  0.56557361  0.24711082  0.75043210     0.00740
H1316       H  0.61259912  0.28848469  0.74104801     0.08390
H1317       H  0.55904066  0.23100519  0.75464584     0.07470
N1318       N  0.50618987  0.33574057  0.74504131    -0.36370
N1319       N  0.97408556  0.33584419  0.75461301    -0.28550
C1320       C  0.96394197  0.35563690  0.75819940    -0.03790
C1321       C  0.99076505  0.36867393  0.75002670     0.04820
C1322       C  0.51706756  0.35545680  0.74168314     0.02910
H1323       H  0.93879111  0.36019311  0.76603079     0.08020
H1324       H  0.54240374  0.35983619  0.73394900     0.06850
O1325       O  0.52461534  0.53129508  0.99986829    -0.73190
O1326       O  0.52426611  0.46893713  0.00107143    -0.74170
O1327       O  0.52480100  0.49945494  0.95532512    -0.62790
O1328       O  0.52323719  0.50064923  0.54550188    -0.71200
O1329       O  0.96679976  0.49946365  0.54440258    -0.70750
O1330       O  0.96834867  0.50083601  0.95466367    -0.62000
O1331       O  0.96754399  0.46885036  0.99964717    -0.74510
O1332       O  0.96791358  0.53153097  0.99943554    -0.73290
Cu1333     Cu  0.52618077  0.50011444  0.00045811     1.04560
Cu1334     Cu  0.96570545  0.50020036  0.99950683     1.04330
C1335       C  0.99642140  0.54139957  0.99959165     0.93010
C1336       C  0.99595677  0.45892142  0.00051653     0.92150
C1337       C  0.99672702  0.50005012  0.94048683     0.84300
C1338       C  0.99463600  0.50005160  0.55946750     0.90570
O1339       O  0.96514445  0.53136578  0.74905073    -0.73190
O1340       O  0.96499653  0.46907873  0.75334612    -0.74170
O1341       O  0.96732982  0.50159564  0.79574272    -0.62790
O1342       O  0.96357615  0.49854073  0.70586394    -0.71200
O1343       O  0.51993154  0.50161905  0.70438248    -0.70750
O1344       O  0.52365237  0.49842014  0.79388732    -0.62000
O1345       O  0.52131544  0.46889221  0.74717223    -0.74510
O1346       O  0.52190757  0.53143531  0.75022589    -0.73290
Cu1347     Cu  0.96327081  0.50019309  0.75102822     1.04560
Cu1348     Cu  0.52367983  0.50012974  0.74890868     1.04330
C1349       C  0.99348641  0.54136259  0.74951365     0.93010
C1350       C  0.99300211  0.45904006  0.75023715     0.92150
C1351       C  0.99611475  0.49970781  0.80923494     0.84300
C1352       C  0.99135285  0.49969879  0.69070544     0.90570
C1353       C  0.96833939  0.49182052  0.89061380    -0.02090
C1354       C  0.99696635  0.49966706  0.90681801     0.07590
C1355       C  0.52599688  0.50680921  0.89041620    -0.02200
C1356       C  0.52607625  0.50652688  0.85877104    -0.02210
C1357       C  0.99727070  0.49896206  0.84274661     0.07720
C1358       C  0.96906078  0.49083202  0.85905826    -0.02400
Br1359     Br  0.93206266  0.47637031  0.83876175    -0.00950
Br1360     Br  0.92725194  0.48187665  0.91053888    -0.01020
Br1361     Br  0.56637107  0.51694585  0.83811483    -0.00980
Br1362     Br  0.56594856  0.51819913  0.91033735    -0.00970
C1363       C  0.96381840  0.50666615  0.60872222    -0.02090
C1364       C  0.99356323  0.49983000  0.59314640     0.07590
C1365       C  0.52179055  0.49220011  0.61019199    -0.02200
C1366       C  0.51989173  0.49093270  0.64171559    -0.02210
C1367       C  0.99100146  0.49879977  0.65720325     0.07720
C1368       C  0.96264028  0.50621676  0.64035885    -0.02400
Br1369     Br  0.92146829  0.51613658  0.65989990    -0.00950
Br1370     Br  0.92428225  0.51790567  0.58774091    -0.01020
Br1371     Br  0.55624922  0.47637302  0.66305301    -0.00980
Br1372     Br  0.56396823  0.48305500  0.59150379    -0.00970
C1373       C  0.51801467  0.40252180  0.76485708    -0.02090
C1374       C  0.99128045  0.39177387  0.75015878     0.07590
C1375       C  0.96514079  0.40318105  0.73546778    -0.02200
C1376       C  0.96573128  0.42508294  0.73541375    -0.02210
C1377       C  0.99251575  0.43589643  0.75012512     0.07720
C1378       C  0.51867102  0.42442515  0.76484023    -0.02400
Br1379     Br  0.55473264  0.43841416  0.78671778    -0.00950
Br1380     Br  0.55296570  0.38740293  0.78680878    -0.01020
Br1381     Br  0.93047938  0.43995686  0.71340093    -0.00980
Br1382     Br  0.92926351  0.38897313  0.71368275    -0.00970
C1383       C  0.97260351  0.42432338  0.98327015    -0.02090
C1384       C  0.49627461  0.43571499  0.00084027     0.07590
C1385       C  0.52060102  0.42462259  0.51846260    -0.02200
C1386       C  0.52125936  0.40273721  0.51845260    -0.02210
C1387       C  0.49799417  0.39160955  0.00056901     0.07720
C1388       C  0.97375443  0.40244666  0.98289810    -0.02400
Br1389     Br  0.94327370  0.38742285  0.95650320    -0.00950
Br1390     Br  0.93918379  0.43822761  0.95828118    -0.01020
Br1391     Br  0.55306106  0.38813294  0.54447305    -0.00980
Br1392     Br  0.55236908  0.43903375  0.54422690    -0.00970
C1393       C  0.96876691  0.59751448  0.73135246    -0.02090
C1394       C  0.99195249  0.60864385  0.74946079     0.07590
C1395       C  0.51579097  0.59773274  0.76745691    -0.02200
C1396       C  0.51661745  0.57584997  0.76723421    -0.02210
C1397       C  0.99324151  0.56454975  0.74926960     0.07720
C1398       C  0.96928318  0.57562511  0.73131421    -0.02400
Br1399     Br  0.93799891  0.56124187  0.70506423    -0.00950
Br1400     Br  0.93732141  0.61220968  0.70511904    -0.01020
Br1401     Br  0.54899279  0.56176414  0.79306652    -0.00980
Br1402     Br  0.54615893  0.61267127  0.79404020    -0.00970
C1403       C  0.97289663  0.59778209  0.51598333    -0.02090
C1404       C  0.99836703  0.60877261  0.99989763     0.07590
C1405       C  0.52325181  0.59762499  0.98369888    -0.02200
C1406       C  0.52277944  0.57572994  0.98370856    -0.02210
C1407       C  0.99692736  0.56462794  0.99954320     0.07720
C1408       C  0.97193100  0.57589473  0.51560854    -0.02400
Br1409     Br  0.93679132  0.56193050  0.53870761    -0.00950
Br1410     Br  0.94020512  0.61271100  0.54031133    -0.01020
Br1411     Br  0.55715503  0.56147039  0.96048308    -0.00980
Br1412     Br  0.55709293  0.61228662  0.95981073    -0.00970
C1413       C  0.71236681  0.07593013  0.73838962    -0.02090
C1414       C  0.74020080  0.06461861  0.75105139     0.07590
C1415       C  0.76712951  0.07577573  0.76514072    -0.02200
C1416       C  0.76691851  0.09769356  0.76533000    -0.02210
C1417       C  0.74020714  0.10883689  0.75104888     0.07720
C1418       C  0.71305096  0.09782350  0.73747630    -0.02400
Br1419     Br  0.67760075  0.11255068  0.71548869    -0.00950
Br1420     Br  0.67242310  0.06213183  0.72223203    -0.01020
Br1421     Br  0.80248242  0.11230926  0.78695285    -0.00980
Br1422     Br  0.80327830  0.06142582  0.78678913    -0.00970
C1423       C  0.77073330  0.90232228  0.76241439    -0.02090
C1424       C  0.74354951  0.89164652  0.74832159     0.07590
C1425       C  0.71794266  0.90305850  0.73301355    -0.02200
C1426       C  0.71908570  0.92495112  0.73229801    -0.02210
C1427       C  0.74599395  0.93579917  0.74693930     0.07720
C1428       C  0.77239679  0.92419462  0.76120716    -0.02400
Br1429     Br  0.81114872  0.93766836  0.77983706    -0.00950
Br1430     Br  0.80480233  0.88715100  0.78541119    -0.01020
Br1431     Br  0.68466193  0.93961895  0.70896952    -0.00980
Br1432     Br  0.68198003  0.88878825  0.71139796    -0.00970
C1433       C  0.72055030  0.01056505  0.88945632    -0.02090
C1434       C  0.74724489  0.00062836  0.90589458     0.07590
C1435       C  0.77401106  0.99090124  0.88965986    -0.02200
C1436       C  0.77361978  0.99067539  0.85798447    -0.02210
C1437       C  0.74700123  0.00063914  0.84172677     0.07720
C1438       C  0.72104551  0.01110295  0.85779708    -0.02400
Br1439     Br  0.68721192  0.02784368  0.83676934    -0.00950
Br1440     Br  0.68293696  0.02417450  0.90944350    -0.01020
Br1441     Br  0.80944528  0.97576733  0.83737891    -0.00980
Br1442     Br  0.81103232  0.97667698  0.91007803    -0.00970
C1443       C  0.76362786  0.98543944  0.64050275    -0.02090
C1444       C  0.74189496  0.99945474  0.65570742     0.07590
C1445       C  0.72095597  0.01311668  0.63878929    -0.02200
C1446       C  0.72249668  0.01326146  0.60720505    -0.02210
C1447       C  0.74448665  0.99943645  0.59208633     0.07720
C1448       C  0.76491229  0.98544277  0.60887761    -0.02400
Br1449     Br  0.79348244  0.96546338  0.58860702    -0.00950
Br1450     Br  0.79023803  0.96518825  0.66279341    -0.01020
Br1451     Br  0.69595295  0.03349349  0.58477649    -0.00980
Br1452     Br  0.69103204  0.03242901  0.65852935    -0.00970
C1453       C  0.71964584  0.07599952  0.98604517    -0.02090
C1454       C  0.74435115  0.06418161  0.00207171     0.07590
C1455       C  0.76948303  0.07469210  0.51925740    -0.02200
C1456       C  0.77073591  0.09658025  0.51929732    -0.02210
C1457       C  0.74701921  0.10825789  0.00214845     0.07720
C1458       C  0.72152859  0.09785540  0.98549672    -0.02400
Br1459     Br  0.69038593  0.11338592  0.95996504    -0.00950
Br1460     Br  0.68300288  0.06277881  0.96424107    -0.01020
Br1461     Br  0.80406380  0.11050709  0.54426156    -0.00980
Br1462     Br  0.80084969  0.05944964  0.54495574    -0.00970
C1463       C  0.72391768  0.90240260  0.51671548    -0.02090
C1464       C  0.74969363  0.89142326  0.00133361     0.07590
C1465       C  0.77594735  0.90250894  0.98638998    -0.02200
C1466       C  0.77650223  0.92438941  0.98683231    -0.02210
C1467       C  0.74983741  0.93555796  0.00110968     0.07720
C1468       C  0.72388672  0.92430579  0.51657794    -0.02400
Br1469     Br  0.68943040  0.93854611  0.53993623    -0.00950
Br1470     Br  0.68944248  0.88757218  0.53962331    -0.01020
Br1471     Br  0.81418338  0.93847582  0.96724677    -0.00980
Br1472     Br  0.81023071  0.88787420  0.96335226    -0.00970
loop_ 
_geom_bond_atom_site_label_1 
_geom_bond_atom_site_label_2 
_geom_bond_distance 
_geom_bond_site_symmetry_2 
_ccdc_geom_bond_type 
O1           Cu9   2.012   1_564  S
O1           C11   1.277   1_554  A
O2           Cu9   2.001       .  S
O2          C380   1.276   1_556  A
O3           Cu9   2.019   1_554  S
O3           C13   1.279   1_545  A
O4         Cu377   2.026       .  S
O4           C14   1.280       .  A
O5          Cu10   2.015       .  S
O5           C14   1.277   1_565  A
O6         Cu378   2.008   1_554  S
O6           C13   1.277       .  A
O7          Cu10   2.022   1_545  S
O7           C12   1.279       .  A
O8          Cu10   2.009       .  S
O8          C379   1.278       .  A
Cu9         O372   2.027       .  S
Cu9        Cu378   2.362   1_545  S
Cu10        O374   2.008       .  S
Cu10       Cu377   2.362   1_565  S
C11         O376   1.278       .  A
C11         C731   1.493   1_556  S
C12         O370   1.276       .  A
C12         C350   1.492       .  S
C13         C343   1.485       .  S
C14         C330   1.505       .  S
O15         Cu23   2.013       .  S
O15          C25   1.278       .  A
O16         Cu23   2.023   1_565  S
O16          C26   1.279       .  A
O17         Cu23   2.004       .  S
O17          C27   1.276       .  A
O18         Cu23   2.020       .  S
O18          C28   1.278       .  A
O19         Cu24   2.012       .  S
O19          C28   1.278   1_565  A
O20         Cu24   2.033       .  S
O20          C27   1.281   1_565  A
O21         Cu24   1.999       .  S
O21          C26   1.276       .  A
O22         Cu24   2.011   1_545  S
O22          C25   1.277       .  A
Cu23        Cu24   2.361   1_545  S
C25         C310   1.497       .  S
C26         C323   1.495       .  S
C27         C340   1.490   1_545  S
C28         C333   1.497       .  S
N29          N30   1.323       .  A
N29          C33   1.345       .  A
N29         Cu37   2.074       .  S
N30          C31   1.344       .  A
N30         Cu36   2.071       .  S
C31          C32   1.382       .  A
C31          H34   1.082       .  S
C32         C176   1.470       .  S
C32          C33   1.383       .  A
C33          H35   1.082       .  S
Cu36         N39   2.071       .  S
Cu37         N47   2.073       .  S
Cu38         N40   2.070       .  S
Cu38         N46   2.070       .  S
N39          N40   1.322       .  A
N39          C43   1.345       .  A
N40          C41   1.344       .  A
C41          C42   1.383       .  A
C41          H44   1.082       .  S
C42         C186   1.470       .  S
C42          C43   1.383       .  A
C43          H45   1.082       .  S
N46          N47   1.322       .  A
N46          C50   1.343       .  A
N47          C48   1.345       .  A
C48          C49   1.385       .  A
C48          H51   1.082       .  S
C49         C353   1.483       .  S
C49          C50   1.384       .  A
C50          H52   1.082       .  S
N53          N54   1.322       .  A
N53          C57   1.345       .  A
N53         Cu61   2.075       .  S
N54          C55   1.344       .  A
N54         Cu60   2.070       .  S
C55          C56   1.382       .  A
C55          H58   1.082       .  S
C56         C210   1.471       .  S
C56          C57   1.384       .  A
C57          H59   1.082       .  S
Cu60         N63   2.070       .  S
Cu61         N71   2.075       .  S
Cu62         N64   2.074       .  S
Cu62         N70   2.073       .  S
N63          N64   1.322       .  A
N63          C67   1.345       .  A
N64          C65   1.345       .  A
C65          C66   1.383       .  A
C65          H68   1.082       .  S
C66         C200   1.470       .  S
C66          C67   1.382       .  A
C67          H69   1.082       .  S
N70          N71   1.321       .  A
N70          C74   1.345       .  A
N71          C72   1.344       .  A
C72          C73   1.386       .  A
C72          H75   1.082       .  S
C73         C313   1.487       .  S
C73          C74   1.386       .  A
C74          H76   1.082       .  S
N77          N78   1.322       .  A
N77          C81   1.344       .  A
N77         Cu85   2.071       .  S
N78          C79   1.344       .  A
N78         Cu84   2.070       .  S
C79          C80   1.382       .  A
C79          H82   1.082       .  S
C80         C128   1.469       .  S
C80          C81   1.383       .  A
C81          H83   1.082       .  S
Cu84         N87   2.070       .  S
Cu85         N95   2.071       .  S
Cu86         N88   2.072       .  S
Cu86         N94   2.072       .  S
N87          N88   1.322       .  A
N87          C91   1.344       .  A
N88          C89   1.345       .  A
C89          C90   1.383       .  A
C89          H92   1.082       .  S
C90         C138   1.470       .  S
C90          C91   1.382       .  A
C91          H93   1.082       .  S
N94          N95   1.321       .  A
N94          C98   1.344       .  A
N95          C96   1.344       .  A
C96          C97   1.385       .  A
C96          H99   1.082       .  S
C97         C360   1.484       .  S
C97          C98   1.385       .  A
C98         H100   1.082       .  S
N101        N102   1.323       .  A
N101        C105   1.345       .  A
N101       Cu109   2.076       .  S
N102        C103   1.344       .  A
N102       Cu108   2.070       .  S
C103        C104   1.382       .  A
C103        H106   1.082       .  S
C104        C152   1.470       .  S
C104        C105   1.383       .  A
C105        H107   1.082       .  S
Cu108       N111   2.070       .  S
Cu109       N119   2.076       .  S
Cu110       N112   2.070       .  S
Cu110       N118   2.069       .  S
N111        N112   1.322       .  A
N111        C115   1.345       .  A
N112        C113   1.344       .  A
C113        C114   1.383       .  A
C113        H116   1.082       .  S
C114        C162   1.470       .  S
C114        C115   1.383       .  A
C115        H117   1.082       .  S
N118        N119   1.322       .  A
N118        C122   1.343       .  A
N119        C120   1.345       .  A
C120        C121   1.386       .  A
C120        H123   1.082       .  S
C121        C320   1.485       .  S
C121        C122   1.384       .  A
C122        H124   1.082       .  S
N125        N126   1.322       .  A
N125        C129   1.345       .  A
N125       Cu133   2.072       .  S
N126        C127   1.344       .  A
N126       Cu868   2.070   1_455  S
C127        C128   1.382       .  A
C127        H130   1.082       .  S
C128        C129   1.383       .  A
C129        H131   1.082       .  S
Cu132       N135   2.070       .  S
Cu132       N862   2.070       .  S
Cu133       N143   2.072       .  S
Cu134       N136   2.071       .  S
Cu134       N142   2.070       .  S
N135        N136   1.322       .  A
N135        C139   1.345       .  A
N136        C137   1.344       .  A
C137        C138   1.383       .  A
C137        H140   1.082       .  S
C138        C139   1.383       .  A
C139        H141   1.082       .  S
N142        N879   1.322       .  A
N142        C146   1.344       .  A
N143        N878   1.322   1_455  A
N143        C144   1.345       .  A
C144        C881   1.385   1_455  A
C144        H147   1.082       .  S
C145        C300   1.483       .  S
C145        C146   1.384       .  A
C145        C880   1.385       .  A
C146        H148   1.082       .  S
N149        N150   1.322       .  A
N149        C153   1.344       .  A
N149       Cu157   2.071       .  S
N150        C151   1.345       .  A
N150       Cu892   2.072   1_455  S
C151        C152   1.383       .  A
C151        H154   1.082       .  S
C152        C153   1.383       .  A
C153        H155   1.082       .  S
Cu156       N159   2.072       .  S
Cu156       N886   2.072       .  S
Cu157       N167   2.070       .  S
Cu158       N160   2.072       .  S
Cu158       N166   2.072       .  S
N159        N160   1.322       .  A
N159        C163   1.345       .  A
N160        C161   1.345       .  A
C161        C162   1.382       .  A
C161        H164   1.082       .  S
C162        C163   1.383       .  A
C163        H165   1.082       .  S
N166        N903   1.322       .  A
N166        C170   1.345       .  A
N167        N902   1.322   1_455  A
N167        C168   1.344       .  A
C168        C905   1.384   1_455  A
C168        H171   1.082       .  S
C169        C290   1.482       .  S
C169        C170   1.385       .  A
C169        C904   1.384       .  A
C170        H172   1.082       .  S
N173        N174   1.322       .  A
N173        C177   1.344       .  A
N173       Cu181   2.069       .  S
N174        C175   1.345       .  A
N174       Cu916   2.072       .  S
C175        C176   1.383       .  A
C175        H178   1.082       .  S
C176        C177   1.382       .  A
C177        H179   1.082       .  S
Cu180       N183   2.072       .  S
Cu180       N910   2.072   1_455  S
Cu181       N191   2.069       .  S
Cu182       N184   2.073       .  S
Cu182       N190   2.073       .  S
N183        N184   1.322       .  A
N183        C187   1.344       .  A
N184        C185   1.345       .  A
C185        C186   1.383       .  A
C185        H188   1.082       .  S
C186        C187   1.383       .  A
C187        H189   1.082       .  S
N190        N927   1.322   1_455  A
N190        C194   1.345       .  A
N191        N926   1.322       .  A
N191        C192   1.344       .  A
C192        C929   1.383       .  A
C192        H195   1.082       .  S
C193        C283   1.482       .  S
C193        C194   1.385   1_655  A
C193        C928   1.383       .  A
C194        H196   1.082       .  S
N197        N198   1.322       .  A
N197        C201   1.345       .  A
N197       Cu205   2.076       .  S
N198        C199   1.344       .  A
N198       Cu204   2.070       .  S
C199        C200   1.382       .  A
C199        H202   1.082       .  S
C200        C201   1.383       .  A
C201        H203   1.082       .  S
Cu204       N943   2.070       .  S
Cu205       N215   2.075       .  S
Cu206       N208   2.074       .  S
Cu206       N214   2.074       .  S
N207        N208   1.322       .  A
N207        C211   1.345       .  A
N207       Cu940   2.070   1_455  S
N208        C209   1.345       .  A
C209        C210   1.383       .  A
C209        H212   1.082       .  S
C210        C211   1.383       .  A
C211        H213   1.082       .  S
N214        N951   1.322   1_455  A
N214        C218   1.345       .  A
N215        N950   1.322       .  A
N215        C216   1.345       .  A
C216        C217   1.386       .  A
C216        H219   1.082       .  S
C217        C270   1.487       .  S
C217        C954   1.385       .  A
C218        C953   1.385   1_455  A
C218        H220   1.082       .  S
O221       Cu229   2.008       .  S
O221        C967   1.277   1_455  A
O222       Cu229   2.008       .  S
O222        C968   1.277   1_455  A
O223       Cu229   2.014       .  S
O223        C969   1.278   1_455  A
O224       Cu597   2.013       .  S
O224        C970   1.277   1_455  A
O225       Cu598   2.003   1_554  S
O225        C234   1.275       .  A
O226       Cu230   2.003       .  S
O226        C233   1.275       .  A
O227       Cu230   2.019       .  S
O227        C232   1.279       .  A
O228       Cu230   2.018       .  S
O228        C231   1.279       .  A
Cu229       O592   2.013       .  S
Cu229      Cu966   2.355   1_455  S
Cu230       O593   2.003       .  S
Cu230      Cu965   2.355       .  S
C231        O957   1.277       .  A
C231        C303   1.495       .  S
C232        O958   1.277       .  A
C232       C1016   1.493       .  S
C233        O959   1.278       .  A
C233        C250   1.502       .  S
C234        O960   1.277       .  A
C234        C260   1.502       .  S
O235       Cu243   2.009       .  S
O235        C245   1.277       .  A
O236       Cu243   2.005       .  S
O236        C246   1.277       .  A
O237       Cu243   2.003       .  S
O237        C247   1.277       .  A
O238       Cu243   2.018       .  S
O238        C248   1.278       .  A
O239       Cu244   1.992       .  S
O239        C984   1.275   1_455  A
O240       Cu244   2.008       .  S
O240        C983   1.276   1_455  A
O241       Cu244   2.015       .  S
O241        C982   1.278   1_455  A
O242       Cu244   2.017       .  S
O242        C981   1.279   1_455  A
Cu243      Cu980   2.354       .  S
Cu244      Cu979   2.354   1_455  S
C245        O978   1.279       .  A
C245        C293   1.492       .  S
C246        O977   1.278       .  A
C246        C273   1.490       .  S
C247        O976   1.276       .  A
C247        C253   1.495       .  S
C248        O975   1.275       .  A
C248        C263   1.496       .  S
C249        C250   1.422       .  A
C249        C254   1.410       .  A
C249       Br256   1.937       .  S
C250        C987   1.421       .  A
C251        C252   1.411       .  A
C251        C986   1.421   1_455  A
C251       Br258   1.937       .  S
C252        C989   1.417   1_455  A
C252       Br257   1.937       .  S
C253        C254   1.416       .  A
C253        C988   1.417       .  A
C254       Br255   1.942       .  S
C259        C260   1.423       .  A
C259        C264   1.412       .  A
C259       Br266   1.938       .  S
C260        C997   1.421       .  A
C261        C262   1.409       .  A
C261        C996   1.421   1_455  A
C261       Br268   1.937       .  S
C262        C999   1.417   1_455  A
C262       Br267   1.942       .  S
C263        C264   1.416       .  A
C263        C998   1.417       .  A
C264       Br265   1.937       .  S
C269        C274   1.410       .  A
C269       C1006   1.413   1_455  A
C269       Br276   1.934       .  S
C270        C271   1.413       .  A
C270       C1005   1.413       .  A
C271        C272   1.410       .  A
C271       Br278   1.934       .  S
C272        C273   1.417       .  A
C272       Br277   1.936       .  S
C273       C1010   1.416       .  A
C274       C1009   1.416   1_455  A
C274       Br275   1.935       .  S
C279        C284   1.409       .  A
C279       C1016   1.417       .  A
C279       Br286   1.928       .  S
C280        C968   1.493       .  S
C280       C1015   1.417       .  A
C280        C649   1.418   1_655  A
C281        C282   1.409       .  A
C281        C648   1.418   1_455  A
C281       Br288   1.930       .  S
C282        C651   1.409   1_455  A
C282       Br287   1.935       .  S
C283        C650   1.409   1_655  A
C283       C1020   1.410       .  A
C284       C1019   1.410       .  A
C284       Br285   1.935       .  S
C289        C290   1.410       .  A
C289        C294   1.409       .  A
C289       Br296   1.934       .  S
C290       C1027   1.410       .  A
C291        C292   1.409       .  A
C291       C1026   1.410   1_455  A
C291       Br298   1.935       .  S
C292       C1029   1.417   1_455  A
C292       Br297   1.928       .  S
C293        C294   1.417       .  A
C293       C1028   1.417       .  A
C294       Br295   1.930       .  S
C299        C304   1.409       .  A
C299        C668   1.410   1_554  A
C299       Br306   1.935       .  S
C300        C667   1.410       .  A
C300       C1037   1.410       .  A
C301        C302   1.409       .  A
C301       C1036   1.410   1_455  A
C301       Br308   1.935       .  S
C302       C1039   1.419   1_455  A
C302       Br307   1.931       .  S
C303       C1038   1.419       .  A
C303        C672   1.418       .  A
C304        C671   1.418   1_554  A
C304       Br305   1.930       .  S
C309        C310   1.420       .  A
C309        C314   1.409       .  A
C309       Br316   1.932       .  S
C310        C311   1.420       .  A
C311        C312   1.411       .  A
C311       Br318   1.936       .  S
C312        C313   1.412       .  A
C312       Br317   1.935       .  S
C313        C314   1.411       .  A
C314       Br315   1.936       .  S
C319        C320   1.412       .  A
C319        C324   1.410       .  A
C319       Br326   1.936       .  S
C320        C321   1.411       .  A
C321        C322   1.410       .  A
C321       Br328   1.935       .  S
C322        C323   1.420       .  A
C322       Br327   1.937       .  S
C323        C324   1.418       .  A
C324       Br325   1.930       .  S
C329        C330   1.421       .  A
C329        C334   1.412       .  A
C329       Br336   1.931       .  S
C330        C331   1.419   1_545  A
C331        C332   1.413       .  A
C331       Br338   1.931       .  S
C332        C333   1.415   1_565  A
C332       Br337   1.932       .  S
C333        C334   1.414       .  A
C334       Br335   1.938       .  S
C339        C340   1.416       .  A
C339        C344   1.411       .  A
C339       Br346   1.933       .  S
C340        C341   1.412   1_565  A
C341        C342   1.410       .  A
C341       Br348   1.924       .  S
C342        C343   1.412   1_545  A
C342       Br347   1.934       .  S
C343        C344   1.411       .  A
C344       Br345   1.933       .  S
C349        C350   1.416       .  A
C349        C354   1.408       .  A
C349       Br356   1.927       .  S
C350        C719   1.418       .  A
C351        C352   1.410       .  A
C351        C718   1.418       .  A
C351       Br358   1.936       .  S
C352        C721   1.411       .  A
C352       Br357   1.934       .  S
C353        C354   1.411       .  A
C353        C720   1.411       .  A
C354       Br355   1.935       .  S
C359        C364   1.410       .  A
C359        C728   1.411       .  A
C359       Br366   1.934       .  S
C360        C361   1.411       .  A
C360        C727   1.411       .  A
C361        C362   1.409       .  A
C361       Br368   1.936       .  S
C362        C363   1.418       .  A
C362       Br367   1.930       .  S
C363        C379   1.493       .  S
C363        C732   1.418       .  A
C364        C731   1.418       .  A
C364       Br365   1.936       .  S
O369       Cu377   2.012   1_565  S
O369        C379   1.277       .  A
O370       Cu377   2.001       .  S
O371       Cu377   2.019       .  S
O371        C381   1.279   1_545  A
O372        C382   1.280       .  A
O373       Cu378   2.014       .  S
O373        C382   1.277   1_565  A
O374        C381   1.277       .  A
O375       Cu378   2.022   1_544  S
O375        C380   1.279       .  A
O376       Cu378   2.009       .  S
C380        C718   1.492       .  S
C381        C711   1.485       .  S
C382        C698   1.505       .  S
O383       Cu391   2.013       .  S
O383        C393   1.278       .  A
O384       Cu391   2.023   1_565  S
O384        C394   1.279       .  A
O385       Cu391   2.004       .  S
O385        C395   1.276       .  A
O386       Cu391   2.020       .  S
O386        C396   1.278       .  A
O387       Cu392   2.012       .  S
O387        C396   1.278   1_565  A
O388       Cu392   2.033       .  S
O388        C395   1.281   1_565  A
O389       Cu392   1.999       .  S
O389        C394   1.276       .  A
O390       Cu392   2.011   1_545  S
O390        C393   1.277       .  A
Cu391      Cu392   2.361   1_545  S
C393        C678   1.497       .  S
C394        C691   1.495       .  S
C395        C708   1.490   1_545  S
C396        C701   1.497       .  S
N397        N398   1.323       .  A
N397        C401   1.345       .  A
N397       Cu405   2.074       .  S
N398        C399   1.344       .  A
N398       Cu404   2.072       .  S
C399        C400   1.382       .  A
C399        H402   1.082   1_556  S
C400        C544   1.470   1_556  S
C400        C401   1.383       .  A
C401        H403   1.082       .  S
Cu404       N407   2.071   1_556  S
Cu405       N415   2.074       .  S
Cu406       N408   2.070       .  S
Cu406       N414   2.070       .  S
N407        N408   1.322       .  A
N407        C411   1.345   1_554  A
N408        C409   1.344       .  A
C409        C410   1.383       .  A
C409        H412   1.082       .  S
C410        C554   1.470   1_554  S
C410        C411   1.383   1_554  A
C411        H413   1.082       .  S
N414        N415   1.322   1_554  A
N414        C418   1.343       .  A
N415        C416   1.345       .  A
C416        C417   1.385   1_556  A
C416        H419   1.082       .  S
C417        C721   1.483       .  S
C417        C418   1.384       .  A
C418        H420   1.082       .  S
N421        N422   1.322       .  A
N421        C425   1.345       .  A
N421       Cu429   2.075       .  S
N422        C423   1.344       .  A
N422       Cu428   2.070       .  S
C423        C424   1.382       .  A
C423        H426   1.082       .  S
C424        C578   1.471       .  S
C424        C425   1.384       .  A
C425        H427   1.082       .  S
Cu428       N431   2.070       .  S
Cu429       N439   2.075       .  S
Cu430       N432   2.074       .  S
Cu430       N438   2.073       .  S
N431        N432   1.322       .  A
N431        C435   1.345       .  A
N432        C433   1.345       .  A
C433        C434   1.383       .  A
C433        H436   1.082       .  S
C434        C568   1.470       .  S
C434        C435   1.382       .  A
C435        H437   1.082       .  S
N438        N439   1.321       .  A
N438        C442   1.345       .  A
N439        C440   1.344       .  A
C440        C441   1.386       .  A
C440        H443   1.082       .  S
C441        C681   1.487       .  S
C441        C442   1.386       .  A
C442        H444   1.082       .  S
N445        N446   1.322       .  A
N445        C449   1.344       .  A
N445       Cu453   2.071       .  S
N446        C447   1.344   1_556  A
N446       Cu452   2.070       .  S
C447        C448   1.382   1_554  A
C447        H450   1.082       .  S
C448        C496   1.469   1_556  S
C448        C449   1.382       .  A
C449        H451   1.082       .  S
Cu452       N455   2.070   1_556  S
Cu453       N463   2.071       .  S
Cu454       N456   2.072       .  S
Cu454       N462   2.072       .  S
N455        N456   1.322       .  A
N455        C459   1.344   1_554  A
N456        C457   1.345       .  A
C457        C458   1.383       .  A
C457        H460   1.082       .  S
C458        C506   1.470   1_554  S
C458        C459   1.382   1_554  A
C459        H461   1.082       .  S
N462        N463   1.321   1_554  A
N462        C466   1.344       .  A
N463        C464   1.344       .  A
C464        C465   1.385   1_556  A
C464        H467   1.082       .  S
C465        C728   1.484       .  S
C465        C466   1.385       .  A
C466        H468   1.082       .  S
N469        N470   1.323       .  A
N469        C473   1.345       .  A
N469       Cu477   2.076       .  S
N470        C471   1.344       .  A
N470       Cu476   2.070       .  S
C471        C472   1.382       .  A
C471        H474   1.082       .  S
C472        C520   1.470       .  S
C472        C473   1.383       .  A
C473        H475   1.082       .  S
Cu476       N479   2.070       .  S
Cu477       N487   2.076       .  S
Cu478       N480   2.070       .  S
Cu478       N486   2.069       .  S
N479        N480   1.322       .  A
N479        C483   1.345       .  A
N480        C481   1.344       .  A
C481        C482   1.383       .  A
C481        H484   1.082       .  S
C482        C530   1.470       .  S
C482        C483   1.383       .  A
C483        H485   1.082       .  S
N486        N487   1.322       .  A
N486        C490   1.343       .  A
N487        C488   1.345       .  A
C488        C489   1.386       .  A
C488        H491   1.082       .  S
C489        C688   1.485       .  S
C489        C490   1.384       .  A
C490        H492   1.082       .  S
N493        N494   1.322       .  A
N493        C497   1.345       .  A
N493       Cu501   2.072       .  S
N494        C495   1.344   1_554  A
N494      Cu1236   2.070   1_455  S
C495        C496   1.382   1_556  A
C495        H498   1.082       .  S
C496        C497   1.383       .  A
C497        H499   1.082       .  S
Cu500      N1230   2.070       .  S
Cu500       N503   2.070   1_554  S
Cu501       N511   2.072       .  S
Cu502       N504   2.070       .  S
Cu502       N510   2.070       .  S
N503        N504   1.322       .  A
N503        C507   1.345   1_556  A
N504        C505   1.344       .  A
C505        C506   1.382       .  A
C505        H508   1.082       .  S
C506        C507   1.383   1_556  A
C507        H509   1.082       .  S
N510       N1247   1.321   1_556  A
N510        C514   1.344       .  A
N511       N1246   1.321   1_454  A
N511        C512   1.345       .  A
C512       C1249   1.385   1_454  A
C512        H515   1.082       .  S
C513        C668   1.483       .  S
C513       C1248   1.385   1_556  A
C513        C514   1.384       .  A
C514        H516   1.082       .  S
N517        N518   1.322       .  A
N517        C521   1.344       .  A
N517       Cu525   2.071       .  S
N518        C519   1.345       .  A
N518      Cu1260   2.072   1_455  S
C519        C520   1.383       .  A
C519        H522   1.082       .  S
C520        C521   1.383       .  A
C521        H523   1.082       .  S
Cu524      N1254   2.072       .  S
Cu524       N527   2.072       .  S
Cu525       N535   2.070       .  S
Cu526       N528   2.072       .  S
Cu526       N534   2.072       .  S
N527        N528   1.322       .  A
N527        C531   1.345       .  A
N528        C529   1.345       .  A
C529        C530   1.382       .  A
C529        H532   1.082       .  S
C530        C531   1.383       .  A
C531        H533   1.082       .  S
N534       N1271   1.322       .  A
N534        C538   1.345       .  A
N535       N1270   1.322   1_455  A
N535        C536   1.344       .  A
C536       C1273   1.384   1_455  A
C536        H539   1.082       .  S
C537        C658   1.482       .  S
C537       C1272   1.384       .  A
C537        C538   1.385       .  A
C538        H540   1.082       .  S
N541        N542   1.322       .  A
N541        C545   1.344       .  A
N541       Cu549   2.069       .  S
N542        C543   1.345   1_554  A
N542      Cu1284   2.072   1_554  S
C543        C544   1.383   1_556  A
C543        H546   1.082       .  S
C544        C545   1.382       .  A
C545        H547   1.082       .  S
Cu548      N1278   2.072   1_456  S
Cu548       N551   2.072       .  S
Cu549       N559   2.069       .  S
Cu550       N552   2.073       .  S
Cu550       N558   2.073       .  S
N551        N552   1.322       .  A
N551        C555   1.344   1_556  A
N552        C553   1.345       .  A
C553        C554   1.383       .  A
C553        H556   1.082       .  S
C554        C555   1.383   1_556  A
C555        H557   1.082       .  S
N558       N1295   1.322   1_456  A
N558        C562   1.345       .  A
N559       N1294   1.322   1_554  A
N559        C560   1.344       .  A
C560       C1297   1.384       .  A
C560        H563   1.082       .  S
C561        C651   1.482       .  S
C561       C1296   1.384       .  A
C561        C562   1.385   1_654  A
C562        H564   1.082       .  S
N565        N566   1.322       .  A
N565        C569   1.345       .  A
N565       Cu573   2.076       .  S
N566        C567   1.344       .  A
N566       Cu572   2.070       .  S
C567        C568   1.382       .  A
C567        H570   1.082       .  S
C568        C569   1.383       .  A
C569        H571   1.082       .  S
Cu572      N1311   2.070       .  S
Cu573       N583   2.075       .  S
Cu574       N576   2.074       .  S
Cu574       N582   2.074       .  S
N575        N576   1.322       .  A
N575        C579   1.345       .  A
N575      Cu1308   2.070   1_455  S
N576        C577   1.345       .  A
C577        C578   1.383       .  A
C577        H580   1.082       .  S
C578        C579   1.383       .  A
C579        H581   1.082       .  S
N582       N1319   1.322   1_455  A
N582        C586   1.345       .  A
N583       N1318   1.322       .  A
N583        C584   1.345       .  A
C584        C585   1.386       .  A
C584        H587   1.082       .  S
C585        C638   1.487       .  S
C585       C1322   1.385       .  A
C586       C1321   1.385   1_455  A
C586        H588   1.082       .  S
O589       Cu597   2.008   1_556  S
O589       C1335   1.277   1_455  A
O590       Cu597   2.008       .  S
O590       C1336   1.277   1_455  A
O591       Cu597   2.014   1_556  S
O591       C1337   1.278   1_455  A
O592       C1338   1.277   1_455  A
O593        C602   1.275       .  A
O594       Cu598   2.003       .  S
O594        C601   1.275       .  A
O595       Cu598   2.019       .  S
O595        C600   1.279   1_556  A
O596       Cu598   2.018       .  S
O596        C599   1.278       .  A
Cu597     Cu1334   2.355   1_454  S
Cu598     Cu1333   2.355   1_556  S
C599       O1325   1.277       .  A
C599        C671   1.495       .  S
C600       O1326   1.277       .  A
C600       C1384   1.494       .  S
C601       O1327   1.278       .  A
C601        C618   1.502       .  S
C602       O1328   1.277       .  A
C602        C628   1.502       .  S
O603       Cu611   2.009       .  S
O603        C613   1.277       .  A
O604       Cu611   2.005       .  S
O604        C614   1.276       .  A
O605       Cu611   2.003       .  S
O605        C615   1.277       .  A
O606       Cu611   2.018       .  S
O606        C616   1.278       .  A
O607       Cu612   1.992       .  S
O607       C1352   1.275   1_455  A
O608       Cu612   2.008       .  S
O608       C1351   1.276   1_455  A
O609       Cu612   2.015       .  S
O609       C1350   1.278   1_455  A
O610       Cu612   2.017       .  S
O610       C1349   1.279   1_455  A
Cu611     Cu1348   2.354       .  S
Cu612     Cu1347   2.354   1_455  S
C613       O1346   1.279       .  A
C613        C661   1.492       .  S
C614       O1345   1.278       .  A
C614        C641   1.490       .  S
C615       O1344   1.276       .  A
C615        C621   1.495       .  S
C616       O1343   1.275       .  A
C616        C631   1.496       .  S
C617        C618   1.422       .  A
C617        C622   1.410       .  A
C617       Br624   1.937       .  S
C618       C1355   1.421       .  A
C619       C1354   1.421   1_455  A
C619        C620   1.411       .  A
C619       Br626   1.937       .  S
C620       C1357   1.417   1_455  A
C620       Br625   1.937       .  S
C621       C1356   1.417       .  A
C621        C622   1.416       .  A
C622       Br623   1.942       .  S
C627        C628   1.423       .  A
C627        C632   1.412       .  A
C627       Br634   1.938       .  S
C628       C1365   1.421       .  A
C629       C1364   1.421   1_455  A
C629        C630   1.409       .  A
C629       Br636   1.937       .  S
C630       C1367   1.417   1_455  A
C630       Br635   1.942       .  S
C631       C1366   1.417       .  A
C631        C632   1.416       .  A
C632       Br633   1.937       .  S
C637       C1374   1.413   1_455  A
C637        C642   1.410       .  A
C637       Br644   1.934       .  S
C638       C1373   1.413       .  A
C638        C639   1.413       .  A
C639        C640   1.410       .  A
C639       Br646   1.934       .  S
C640        C641   1.417       .  A
C640       Br645   1.936       .  S
C641       C1378   1.416       .  A
C642       C1377   1.416   1_455  A
C642       Br643   1.935       .  S
C647       C1384   1.417   1_556  A
C647        C652   1.409       .  A
C647       Br654   1.928       .  S
C648       C1336   1.494       .  S
C648       C1383   1.417   1_554  A
C649        C650   1.409       .  A
C649       Br656   1.930       .  S
C650       Br655   1.935       .  S
C651       C1388   1.410   1_554  A
C652       C1387   1.410   1_556  A
C652       Br653   1.935       .  S
C657        C658   1.410       .  A
C657        C662   1.409       .  A
C657       Br664   1.934       .  S
C658       C1395   1.410       .  A
C659       C1394   1.410   1_455  A
C659        C660   1.409       .  A
C659       Br666   1.935       .  S
C660       C1397   1.417   1_455  A
C660       Br665   1.928       .  S
C661       C1396   1.417       .  A
C661        C662   1.417       .  A
C662       Br663   1.930       .  S
C667        C672   1.409       .  A
C667       Br674   1.935       .  S
C668       C1405   1.410       .  A
C669       C1404   1.410   1_455  A
C669        C670   1.409       .  A
C669       Br676   1.935       .  S
C670       C1407   1.419   1_455  A
C670       Br675   1.931       .  S
C671       C1406   1.419       .  A
C672       Br673   1.930       .  S
C677        C678   1.420       .  A
C677        C682   1.409       .  A
C677       Br684   1.932       .  S
C678        C679   1.420       .  A
C679        C680   1.411       .  A
C679       Br686   1.936       .  S
C680        C681   1.412       .  A
C680       Br685   1.935       .  S
C681        C682   1.411       .  A
C682       Br683   1.936       .  S
C687        C688   1.412       .  A
C687        C692   1.410       .  A
C687       Br694   1.936       .  S
C688        C689   1.411       .  A
C689        C690   1.410       .  A
C689       Br696   1.935       .  S
C690        C691   1.420       .  A
C690       Br695   1.937       .  S
C691        C692   1.418       .  A
C692       Br693   1.930       .  S
C697        C698   1.421       .  A
C697        C702   1.412       .  A
C697       Br704   1.931       .  S
C698        C699   1.419   1_545  A
C699        C700   1.413       .  A
C699       Br706   1.931       .  S
C700        C701   1.415   1_565  A
C700       Br705   1.932       .  S
C701        C702   1.414       .  A
C702       Br703   1.938       .  S
C707        C708   1.416       .  A
C707        C712   1.411       .  A
C707       Br714   1.933       .  S
C708        C709   1.412   1_565  A
C709        C710   1.410       .  A
C709       Br716   1.924       .  S
C710        C711   1.412   1_545  A
C710       Br715   1.934       .  S
C711        C712   1.411       .  A
C712       Br713   1.933       .  S
C717        C718   1.416   1_556  A
C717        C722   1.408       .  A
C717       Br724   1.927       .  S
C719        C720   1.410       .  A
C719       Br726   1.936       .  S
C720       Br725   1.934       .  S
C721        C722   1.411   1_554  A
C722       Br723   1.935       .  S
C727        C732   1.410       .  A
C727       Br734   1.934       .  S
C728        C729   1.411   1_554  A
C729        C730   1.409       .  A
C729       Br736   1.936       .  S
C730        C731   1.418   1_556  A
C730       Br735   1.930       .  S
C732       Br733   1.936       .  S
O737       Cu745   2.012   1_564  S
O737        C747   1.277   1_554  A
O738       Cu745   2.001       .  S
O738       C1116   1.276   1_556  A
O739       Cu745   2.019   1_554  S
O739        C749   1.279   1_545  A
O740      Cu1113   2.026       .  S
O740        C750   1.280       .  A
O741       Cu746   2.015       .  S
O741        C750   1.277   1_565  A
O742      Cu1114   2.008   1_554  S
O742        C749   1.277       .  A
O743       Cu746   2.022   1_545  S
O743        C748   1.279       .  A
O744       Cu746   2.009       .  S
O744       C1115   1.278       .  A
Cu745      O1108   2.027       .  S
Cu745     Cu1114   2.362   1_545  S
Cu746      O1110   2.008       .  S
Cu746     Cu1113   2.362   1_565  S
C747       O1112   1.278       .  A
C747       C1467   1.493   1_556  S
C748       O1106   1.276       .  A
C748       C1086   1.492       .  S
C749       C1079   1.485       .  S
C750       C1066   1.505       .  S
O751       Cu759   2.013       .  S
O751        C761   1.278       .  A
O752       Cu759   2.023   1_565  S
O752        C762   1.279       .  A
O753       Cu759   2.004       .  S
O753        C763   1.276       .  A
O754       Cu759   2.020       .  S
O754        C764   1.278       .  A
O755       Cu760   2.012       .  S
O755        C764   1.278   1_565  A
O756       Cu760   2.033       .  S
O756        C763   1.281   1_565  A
O757       Cu760   1.999       .  S
O757        C762   1.276       .  A
O758       Cu760   2.011   1_545  S
O758        C761   1.277       .  A
Cu759      Cu760   2.361   1_545  S
C761       C1046   1.497       .  S
C762       C1059   1.495       .  S
C763       C1076   1.490   1_545  S
C764       C1069   1.497       .  S
N765        N766   1.323       .  A
N765        C769   1.345       .  A
N765       Cu773   2.074       .  S
N766        C767   1.344       .  A
N766       Cu772   2.071       .  S
C767        C768   1.382       .  A
C767        H770   1.082       .  S
C768        C912   1.470       .  S
C768        C769   1.383       .  A
C769        H771   1.082       .  S
Cu772       N775   2.071       .  S
Cu773       N783   2.073       .  S
Cu774       N776   2.070       .  S
Cu774       N782   2.070       .  S
N775        N776   1.322       .  A
N775        C779   1.345       .  A
N776        C777   1.344       .  A
C777        C778   1.383       .  A
C777        H780   1.082       .  S
C778        C922   1.470       .  S
C778        C779   1.383       .  A
C779        H781   1.082       .  S
N782        N783   1.322       .  A
N782        C786   1.343       .  A
N783        C784   1.345       .  A
C784        C785   1.385       .  A
C784        H787   1.082       .  S
C785       C1089   1.483       .  S
C785        C786   1.384       .  A
C786        H788   1.082       .  S
N789        N790   1.322       .  A
N789        C793   1.345       .  A
N789       Cu797   2.075       .  S
N790        C791   1.344       .  A
N790       Cu796   2.070       .  S
C791        C792   1.382       .  A
C791        H794   1.082       .  S
C792        C946   1.471       .  S
C792        C793   1.384       .  A
C793        H795   1.082       .  S
Cu796       N799   2.070       .  S
Cu797       N807   2.075       .  S
Cu798       N800   2.074       .  S
Cu798       N806   2.073       .  S
N799        N800   1.322       .  A
N799        C803   1.345       .  A
N800        C801   1.345       .  A
C801        C802   1.383       .  A
C801        H804   1.082       .  S
C802        C936   1.470       .  S
C802        C803   1.382       .  A
C803        H805   1.082       .  S
N806        N807   1.321       .  A
N806        C810   1.345       .  A
N807        C808   1.344       .  A
C808        C809   1.386       .  A
C808        H811   1.082       .  S
C809       C1049   1.487       .  S
C809        C810   1.386       .  A
C810        H812   1.082       .  S
N813        N814   1.322       .  A
N813        C817   1.344       .  A
N813       Cu821   2.071       .  S
N814        C815   1.344       .  A
N814       Cu820   2.070       .  S
C815        C816   1.382       .  A
C815        H818   1.082       .  S
C816        C864   1.469       .  S
C816        C817   1.383       .  A
C817        H819   1.082       .  S
Cu820       N823   2.070       .  S
Cu821       N831   2.071       .  S
Cu822       N824   2.072       .  S
Cu822       N830   2.072       .  S
N823        N824   1.322       .  A
N823        C827   1.344       .  A
N824        C825   1.345       .  A
C825        C826   1.383       .  A
C825        H828   1.082       .  S
C826        C874   1.470       .  S
C826        C827   1.382       .  A
C827        H829   1.082       .  S
N830        N831   1.321       .  A
N830        C834   1.344       .  A
N831        C832   1.344       .  A
C832        C833   1.385       .  A
C832        H835   1.082       .  S
C833       C1096   1.484       .  S
C833        C834   1.385       .  A
C834        H836   1.082       .  S
N837        N838   1.323       .  A
N837        C841   1.345       .  A
N837       Cu845   2.076       .  S
N838        C839   1.344       .  A
N838       Cu844   2.070       .  S
C839        C840   1.382       .  A
C839        H842   1.082       .  S
C840        C888   1.470       .  S
C840        C841   1.383       .  A
C841        H843   1.082       .  S
Cu844       N847   2.070       .  S
Cu845       N855   2.076       .  S
Cu846       N848   2.070       .  S
Cu846       N854   2.069       .  S
N847        N848   1.322       .  A
N847        C851   1.345       .  A
N848        C849   1.344       .  A
C849        C850   1.383       .  A
C849        H852   1.082       .  S
C850        C898   1.470       .  S
C850        C851   1.383       .  A
C851        H853   1.082       .  S
N854        N855   1.322       .  A
N854        C858   1.343       .  A
N855        C856   1.345       .  A
C856        C857   1.386       .  A
C856        H859   1.082       .  S
C857       C1056   1.485       .  S
C857        C858   1.384       .  A
C858        H860   1.082       .  S
N861        N862   1.322       .  A
N861        C865   1.345       .  A
N861       Cu869   2.072       .  S
N862        C863   1.344       .  A
C863        C864   1.382       .  A
C863        H866   1.082       .  S
C864        C865   1.383       .  A
C865        H867   1.082       .  S
Cu868       N871   2.070       .  S
Cu869       N879   2.072       .  S
Cu870       N872   2.071       .  S
Cu870       N878   2.070       .  S
N871        N872   1.322       .  A
N871        C875   1.345       .  A
N872        C873   1.344       .  A
C873        C874   1.383       .  A
C873        H876   1.082       .  S
C874        C875   1.383       .  A
C875        H877   1.082       .  S
N878        C882   1.344       .  A
N879        C880   1.345       .  A
C880        H883   1.082       .  S
C881       C1036   1.483       .  S
C881        C882   1.384       .  A
C882        H884   1.082       .  S
N885        N886   1.322       .  A
N885        C889   1.344       .  A
N885       Cu893   2.071       .  S
N886        C887   1.345       .  A
C887        C888   1.383       .  A
C887        H890   1.082       .  S
C888        C889   1.383       .  A
C889        H891   1.082       .  S
Cu892       N895   2.072       .  S
Cu893       N903   2.070       .  S
Cu894       N896   2.072       .  S
Cu894       N902   2.072       .  S
N895        N896   1.322       .  A
N895        C899   1.345       .  A
N896        C897   1.345       .  A
C897        C898   1.382       .  A
C897        H900   1.082       .  S
C898        C899   1.383       .  A
C899        H901   1.082       .  S
N902        C906   1.345       .  A
N903        C904   1.344       .  A
C904        H907   1.082       .  S
C905       C1026   1.482       .  S
C905        C906   1.385       .  A
C906        H908   1.082       .  S
N909        N910   1.322       .  A
N909        C913   1.344       .  A
N909       Cu917   2.069       .  S
N910        C911   1.345       .  A
C911        C912   1.383       .  A
C911        H914   1.082       .  S
C912        C913   1.382       .  A
C913        H915   1.082       .  S
Cu916       N919   2.072       .  S
Cu917       N927   2.069       .  S
Cu918       N920   2.073       .  S
Cu918       N926   2.073       .  S
N919        N920   1.322       .  A
N919        C923   1.344       .  A
N920        C921   1.345       .  A
C921        C922   1.383       .  A
C921        H924   1.082       .  S
C922        C923   1.383       .  A
C923        H925   1.082       .  S
N926        C930   1.345       .  A
N927        C928   1.344       .  A
C928        H931   1.082       .  S
C929       C1019   1.482       .  S
C929        C930   1.385       .  A
C930        H932   1.082       .  S
N933        N934   1.322       .  A
N933        C937   1.345       .  A
N933       Cu941   2.076       .  S
N934        C935   1.344       .  A
N934       Cu940   2.070       .  S
C935        C936   1.382       .  A
C935        H938   1.082       .  S
C936        C937   1.383       .  A
C937        H939   1.082       .  S
Cu941       N951   2.075       .  S
Cu942       N944   2.074       .  S
Cu942       N950   2.074       .  S
N943        N944   1.322       .  A
N943        C947   1.345       .  A
N944        C945   1.345       .  A
C945        C946   1.383       .  A
C945        H948   1.082       .  S
C946        C947   1.383       .  A
C947        H949   1.082       .  S
N950        C954   1.345       .  A
N951        C952   1.345       .  A
C952        C953   1.386       .  A
C952        H955   1.082       .  S
C953       C1006   1.487       .  S
C954        H956   1.082       .  S
O957       Cu965   2.008       .  S
O958       Cu965   2.008       .  S
O959       Cu965   2.014       .  S
O960      Cu1333   2.013       .  S
O961      Cu1334   2.003   1_554  S
O961        C970   1.275       .  A
O962       Cu966   2.003       .  S
O962        C969   1.275       .  A
O963       Cu966   2.019       .  S
O963        C968   1.279       .  A
O964       Cu966   2.018       .  S
O964        C967   1.279       .  A
Cu965      O1328   2.013       .  S
Cu966      O1329   2.003       .  S
C967       C1039   1.495       .  S
C969        C986   1.502       .  S
C970        C996   1.502       .  S
O971       Cu979   2.009       .  S
O971        C981   1.277       .  A
O972       Cu979   2.005       .  S
O972        C982   1.277       .  A
O973       Cu979   2.003       .  S
O973        C983   1.277       .  A
O974       Cu979   2.018       .  S
O974        C984   1.278       .  A
O975       Cu980   1.992       .  S
O976       Cu980   2.008       .  S
O977       Cu980   2.015       .  S
O978       Cu980   2.017       .  S
C981       C1029   1.492       .  S
C982       C1009   1.490       .  S
C983        C989   1.495       .  S
C984        C999   1.496       .  S
C985        C986   1.422       .  A
C985        C990   1.410       .  A
C985       Br992   1.937       .  S
C987        C988   1.411       .  A
C987       Br994   1.937       .  S
C988       Br993   1.937       .  S
C989        C990   1.416       .  A
C990       Br991   1.942       .  S
C995        C996   1.423       .  A
C995       C1000   1.412       .  A
C995      Br1002   1.938       .  S
C997        C998   1.409       .  A
C997      Br1004   1.937       .  S
C998      Br1003   1.942       .  S
C999       C1000   1.416       .  A
C1000     Br1001   1.937       .  S
C1005      C1010   1.410       .  A
C1005     Br1012   1.934       .  S
C1006      C1007   1.413       .  A
C1007      C1008   1.410       .  A
C1007     Br1014   1.934       .  S
C1008      C1009   1.417       .  A
C1008     Br1013   1.936       .  S
C1010     Br1011   1.935       .  S
C1015      C1020   1.409       .  A
C1015     Br1022   1.928       .  S
C1016      C1385   1.418       .  A
C1017      C1384   1.418       .  A
C1017      C1018   1.409       .  A
C1017     Br1024   1.930       .  S
C1018      C1387   1.409       .  A
C1018     Br1023   1.935       .  S
C1019      C1386   1.409       .  A
C1020     Br1021   1.935       .  S
C1025      C1026   1.410       .  A
C1025      C1030   1.409       .  A
C1025     Br1032   1.934       .  S
C1027      C1028   1.409       .  A
C1027     Br1034   1.935       .  S
C1028     Br1033   1.928       .  S
C1029      C1030   1.417       .  A
C1030     Br1031   1.930       .  S
C1035      C1404   1.410   1_554  A
C1035      C1040   1.409       .  A
C1035     Br1042   1.935       .  S
C1036      C1403   1.410       .  A
C1037      C1038   1.409       .  A
C1037     Br1044   1.935       .  S
C1038     Br1043   1.931       .  S
C1039      C1408   1.418       .  A
C1040      C1407   1.418   1_554  A
C1040     Br1041   1.930       .  S
C1045      C1046   1.420       .  A
C1045      C1050   1.409       .  A
C1045     Br1052   1.932       .  S
C1046      C1047   1.420       .  A
C1047      C1048   1.411       .  A
C1047     Br1054   1.936       .  S
C1048      C1049   1.412       .  A
C1048     Br1053   1.935       .  S
C1049      C1050   1.411       .  A
C1050     Br1051   1.936       .  S
C1055      C1056   1.412       .  A
C1055      C1060   1.410       .  A
C1055     Br1062   1.936       .  S
C1056      C1057   1.411       .  A
C1057      C1058   1.410       .  A
C1057     Br1064   1.935       .  S
C1058      C1059   1.420       .  A
C1058     Br1063   1.937       .  S
C1059      C1060   1.418       .  A
C1060     Br1061   1.930       .  S
C1065      C1066   1.421       .  A
C1065      C1070   1.412       .  A
C1065     Br1072   1.931       .  S
C1066      C1067   1.419   1_545  A
C1067      C1068   1.413       .  A
C1067     Br1074   1.931       .  S
C1068      C1069   1.415   1_565  A
C1068     Br1073   1.932       .  S
C1069      C1070   1.414       .  A
C1070     Br1071   1.938       .  S
C1075      C1076   1.416       .  A
C1075      C1080   1.411       .  A
C1075     Br1082   1.933       .  S
C1076      C1077   1.412   1_565  A
C1077      C1078   1.410       .  A
C1077     Br1084   1.924       .  S
C1078      C1079   1.412   1_545  A
C1078     Br1083   1.934       .  S
C1079      C1080   1.411       .  A
C1080     Br1081   1.933       .  S
C1085      C1086   1.416       .  A
C1085      C1090   1.408       .  A
C1085     Br1092   1.927       .  S
C1086      C1455   1.418       .  A
C1087      C1454   1.418       .  A
C1087      C1088   1.410       .  A
C1087     Br1094   1.936       .  S
C1088      C1457   1.411       .  A
C1088     Br1093   1.934       .  S
C1089      C1456   1.411       .  A
C1089      C1090   1.411       .  A
C1090     Br1091   1.935       .  S
C1095      C1464   1.411       .  A
C1095      C1100   1.410       .  A
C1095     Br1102   1.934       .  S
C1096      C1463   1.411       .  A
C1096      C1097   1.411       .  A
C1097      C1098   1.409       .  A
C1097     Br1104   1.936       .  S
C1098      C1099   1.418       .  A
C1098     Br1103   1.930       .  S
C1099      C1115   1.493       .  S
C1099      C1468   1.418       .  A
C1100      C1467   1.418       .  A
C1100     Br1101   1.936       .  S
O1105     Cu1113   2.012   1_565  S
O1105      C1115   1.277       .  A
O1106     Cu1113   2.001       .  S
O1107     Cu1113   2.019       .  S
O1107      C1117   1.279   1_545  A
O1108      C1118   1.280       .  A
O1109     Cu1114   2.014       .  S
O1109      C1118   1.277   1_565  A
O1110      C1117   1.277       .  A
O1111     Cu1114   2.022   1_544  S
O1111      C1116   1.279       .  A
O1112     Cu1114   2.009       .  S
C1116      C1454   1.492       .  S
C1117      C1447   1.485       .  S
C1118      C1434   1.505       .  S
O1119     Cu1127   2.013       .  S
O1119      C1129   1.278       .  A
O1120     Cu1127   2.023   1_565  S
O1120      C1130   1.279       .  A
O1121     Cu1127   2.004       .  S
O1121      C1131   1.276       .  A
O1122     Cu1127   2.020       .  S
O1122      C1132   1.278       .  A
O1123     Cu1128   2.012       .  S
O1123      C1132   1.278   1_565  A
O1124     Cu1128   2.033       .  S
O1124      C1131   1.281   1_565  A
O1125     Cu1128   1.999       .  S
O1125      C1130   1.276       .  A
O1126     Cu1128   2.011   1_545  S
O1126      C1129   1.277       .  A
Cu1127    Cu1128   2.361   1_545  S
C1129      C1414   1.497       .  S
C1130      C1427   1.495       .  S
C1131      C1444   1.490   1_545  S
C1132      C1437   1.497       .  S
N1133      N1134   1.323       .  A
N1133      C1137   1.345       .  A
N1133     Cu1141   2.074       .  S
N1134      C1135   1.344       .  A
N1134     Cu1140   2.072       .  S
C1135      C1136   1.382       .  A
C1135      H1138   1.082   1_556  S
C1136      C1280   1.470   1_556  S
C1136      C1137   1.383       .  A
C1137      H1139   1.082       .  S
Cu1140     N1143   2.071   1_556  S
Cu1141     N1151   2.074       .  S
Cu1142     N1144   2.070       .  S
Cu1142     N1150   2.070       .  S
N1143      N1144   1.322       .  A
N1143      C1147   1.345   1_554  A
N1144      C1145   1.344       .  A
C1145      C1146   1.383       .  A
C1145      H1148   1.082       .  S
C1146      C1290   1.470   1_554  S
C1146      C1147   1.383   1_554  A
C1147      H1149   1.082       .  S
N1150      N1151   1.322   1_554  A
N1150      C1154   1.343       .  A
N1151      C1152   1.345       .  A
C1152      C1153   1.385   1_556  A
C1152      H1155   1.082       .  S
C1153      C1457   1.483       .  S
C1153      C1154   1.384       .  A
C1154      H1156   1.082       .  S
N1157      N1158   1.322       .  A
N1157      C1161   1.345       .  A
N1157     Cu1165   2.075       .  S
N1158      C1159   1.344       .  A
N1158     Cu1164   2.070       .  S
C1159      C1160   1.382       .  A
C1159      H1162   1.082       .  S
C1160      C1314   1.471       .  S
C1160      C1161   1.384       .  A
C1161      H1163   1.082       .  S
Cu1164     N1167   2.070       .  S
Cu1165     N1175   2.075       .  S
Cu1166     N1168   2.074       .  S
Cu1166     N1174   2.073       .  S
N1167      N1168   1.322       .  A
N1167      C1171   1.345       .  A
N1168      C1169   1.345       .  A
C1169      C1170   1.383       .  A
C1169      H1172   1.082       .  S
C1170      C1304   1.470       .  S
C1170      C1171   1.382       .  A
C1171      H1173   1.082       .  S
N1174      N1175   1.321       .  A
N1174      C1178   1.345       .  A
N1175      C1176   1.344       .  A
C1176      C1177   1.386       .  A
C1176      H1179   1.082       .  S
C1177      C1417   1.487       .  S
C1177      C1178   1.386       .  A
C1178      H1180   1.082       .  S
N1181      N1182   1.322       .  A
N1181      C1185   1.344       .  A
N1181     Cu1189   2.071       .  S
N1182      C1183   1.344   1_556  A
N1182     Cu1188   2.070       .  S
C1183      C1184   1.382   1_554  A
C1183      H1186   1.082       .  S
C1184      C1232   1.469   1_556  S
C1184      C1185   1.382       .  A
C1185      H1187   1.082       .  S
Cu1188     N1191   2.070   1_556  S
Cu1189     N1199   2.071       .  S
Cu1190     N1192   2.072       .  S
Cu1190     N1198   2.072       .  S
N1191      N1192   1.322       .  A
N1191      C1195   1.344   1_554  A
N1192      C1193   1.345       .  A
C1193      C1194   1.383       .  A
C1193      H1196   1.082       .  S
C1194      C1242   1.470   1_554  S
C1194      C1195   1.382   1_554  A
C1195      H1197   1.082       .  S
N1198      N1199   1.321   1_554  A
N1198      C1202   1.344       .  A
N1199      C1200   1.344       .  A
C1200      C1201   1.385   1_556  A
C1200      H1203   1.082       .  S
C1201      C1464   1.484       .  S
C1201      C1202   1.385       .  A
C1202      H1204   1.082       .  S
N1205      N1206   1.323       .  A
N1205      C1209   1.345       .  A
N1205     Cu1213   2.076       .  S
N1206      C1207   1.344       .  A
N1206     Cu1212   2.070       .  S
C1207      C1208   1.382       .  A
C1207      H1210   1.082       .  S
C1208      C1256   1.470       .  S
C1208      C1209   1.383       .  A
C1209      H1211   1.082       .  S
Cu1212     N1215   2.070       .  S
Cu1213     N1223   2.076       .  S
Cu1214     N1216   2.070       .  S
Cu1214     N1222   2.069       .  S
N1215      N1216   1.322       .  A
N1215      C1219   1.345       .  A
N1216      C1217   1.344       .  A
C1217      C1218   1.383       .  A
C1217      H1220   1.082       .  S
C1218      C1266   1.470       .  S
C1218      C1219   1.383       .  A
C1219      H1221   1.082       .  S
N1222      N1223   1.322       .  A
N1222      C1226   1.343       .  A
N1223      C1224   1.345       .  A
C1224      C1225   1.386       .  A
C1224      H1227   1.082       .  S
C1225      C1424   1.485       .  S
C1225      C1226   1.384       .  A
C1226      H1228   1.082       .  S
N1229      N1230   1.322       .  A
N1229      C1233   1.345       .  A
N1229     Cu1237   2.072       .  S
N1230      C1231   1.344   1_554  A
C1231      C1232   1.382   1_556  A
C1231      H1234   1.082       .  S
C1232      C1233   1.383       .  A
C1233      H1235   1.082       .  S
Cu1236     N1239   2.070   1_554  S
Cu1237     N1247   2.072       .  S
Cu1238     N1240   2.070       .  S
Cu1238     N1246   2.070       .  S
N1239      N1240   1.322       .  A
N1239      C1243   1.345   1_556  A
N1240      C1241   1.344       .  A
C1241      C1242   1.382       .  A
C1241      H1244   1.082       .  S
C1242      C1243   1.383   1_556  A
C1243      H1245   1.082       .  S
N1246      C1250   1.344       .  A
N1247      C1248   1.345       .  A
C1248      H1251   1.082       .  S
C1249      C1404   1.483       .  S
C1249      C1250   1.384       .  A
C1250      H1252   1.082       .  S
N1253      N1254   1.322       .  A
N1253      C1257   1.344       .  A
N1253     Cu1261   2.071       .  S
N1254      C1255   1.345       .  A
C1255      C1256   1.383       .  A
C1255      H1258   1.082       .  S
C1256      C1257   1.383       .  A
C1257      H1259   1.082       .  S
Cu1260     N1263   2.072       .  S
Cu1261     N1271   2.070       .  S
Cu1262     N1264   2.072       .  S
Cu1262     N1270   2.072       .  S
N1263      N1264   1.322       .  A
N1263      C1267   1.345       .  A
N1264      C1265   1.345       .  A
C1265      C1266   1.382       .  A
C1265      H1268   1.082       .  S
C1266      C1267   1.383       .  A
C1267      H1269   1.082       .  S
N1270      C1274   1.345       .  A
N1271      C1272   1.344       .  A
C1272      H1275   1.082       .  S
C1273      C1394   1.482       .  S
C1273      C1274   1.385       .  A
C1274      H1276   1.082       .  S
N1277      N1278   1.322       .  A
N1277      C1281   1.344       .  A
N1277     Cu1285   2.069       .  S
N1278      C1279   1.345   1_554  A
C1279      C1280   1.383   1_556  A
C1279      H1282   1.082       .  S
C1280      C1281   1.382       .  A
C1281      H1283   1.082       .  S
Cu1284     N1287   2.072       .  S
Cu1285     N1295   2.069       .  S
Cu1286     N1288   2.073       .  S
Cu1286     N1294   2.073       .  S
N1287      N1288   1.322       .  A
N1287      C1291   1.344   1_556  A
N1288      C1289   1.345       .  A
C1289      C1290   1.383       .  A
C1289      H1292   1.082       .  S
C1290      C1291   1.383   1_556  A
C1291      H1293   1.082       .  S
N1294      C1298   1.345       .  A
N1295      C1296   1.344       .  A
C1296      H1299   1.082       .  S
C1297      C1387   1.482       .  S
C1297      C1298   1.385   1_554  A
C1298      H1300   1.082       .  S
N1301      N1302   1.322       .  A
N1301      C1305   1.345       .  A
N1301     Cu1309   2.076       .  S
N1302      C1303   1.344       .  A
N1302     Cu1308   2.070       .  S
C1303      C1304   1.382       .  A
C1303      H1306   1.082       .  S
C1304      C1305   1.383       .  A
C1305      H1307   1.082       .  S
Cu1309     N1319   2.075       .  S
Cu1310     N1312   2.074       .  S
Cu1310     N1318   2.074       .  S
N1311      N1312   1.322       .  A
N1311      C1315   1.345       .  A
N1312      C1313   1.345       .  A
C1313      C1314   1.383       .  A
C1313      H1316   1.082       .  S
C1314      C1315   1.383       .  A
C1315      H1317   1.082       .  S
N1318      C1322   1.345       .  A
N1319      C1320   1.345       .  A
C1320      C1321   1.386       .  A
C1320      H1323   1.082       .  S
C1321      C1374   1.487       .  S
C1322      H1324   1.082       .  S
O1325     Cu1333   2.008   1_556  S
O1326     Cu1333   2.008       .  S
O1327     Cu1333   2.014   1_556  S
O1329      C1338   1.275       .  A
O1330     Cu1334   2.003       .  S
O1330      C1337   1.275       .  A
O1331     Cu1334   2.019       .  S
O1331      C1336   1.279   1_556  A
O1332     Cu1334   2.018       .  S
O1332      C1335   1.278       .  A
C1335      C1407   1.495       .  S
C1337      C1354   1.502       .  S
C1338      C1364   1.502       .  S
O1339     Cu1347   2.009       .  S
O1339      C1349   1.277       .  A
O1340     Cu1347   2.005       .  S
O1340      C1350   1.276       .  A
O1341     Cu1347   2.003       .  S
O1341      C1351   1.277       .  A
O1342     Cu1347   2.018       .  S
O1342      C1352   1.278       .  A
O1343     Cu1348   1.992       .  S
O1344     Cu1348   2.008       .  S
O1345     Cu1348   2.015       .  S
O1346     Cu1348   2.017       .  S
C1349      C1397   1.492       .  S
C1350      C1377   1.490       .  S
C1351      C1357   1.495       .  S
C1352      C1367   1.496       .  S
C1353      C1354   1.422       .  A
C1353      C1358   1.410       .  A
C1353     Br1360   1.937       .  S
C1355      C1356   1.411       .  A
C1355     Br1362   1.937       .  S
C1356     Br1361   1.937       .  S
C1357      C1358   1.416       .  A
C1358     Br1359   1.942       .  S
C1363      C1364   1.423       .  A
C1363      C1368   1.412       .  A
C1363     Br1370   1.938       .  S
C1365      C1366   1.409       .  A
C1365     Br1372   1.937       .  S
C1366     Br1371   1.942       .  S
C1367      C1368   1.416       .  A
C1368     Br1369   1.937       .  S
C1373      C1378   1.410       .  A
C1373     Br1380   1.934       .  S
C1374      C1375   1.413       .  A
C1375      C1376   1.410       .  A
C1375     Br1382   1.934       .  S
C1376      C1377   1.417       .  A
C1376     Br1381   1.936       .  S
C1378     Br1379   1.935       .  S
C1383      C1388   1.409       .  A
C1383     Br1390   1.928       .  S
C1385      C1386   1.409       .  A
C1385     Br1392   1.930       .  S
C1386     Br1391   1.935       .  S
C1388     Br1389   1.935       .  S
C1393      C1394   1.410       .  A
C1393      C1398   1.409       .  A
C1393     Br1400   1.934       .  S
C1395      C1396   1.409       .  A
C1395     Br1402   1.935       .  S
C1396     Br1401   1.928       .  S
C1397      C1398   1.417       .  A
C1398     Br1399   1.930       .  S
C1403      C1408   1.409       .  A
C1403     Br1410   1.935       .  S
C1405      C1406   1.409       .  A
C1405     Br1412   1.935       .  S
C1406     Br1411   1.931       .  S
C1408     Br1409   1.930       .  S
C1413      C1414   1.420       .  A
C1413      C1418   1.409       .  A
C1413     Br1420   1.932       .  S
C1414      C1415   1.420       .  A
C1415      C1416   1.411       .  A
C1415     Br1422   1.936       .  S
C1416      C1417   1.412       .  A
C1416     Br1421   1.935       .  S
C1417      C1418   1.411       .  A
C1418     Br1419   1.936       .  S
C1423      C1424   1.412       .  A
C1423      C1428   1.410       .  A
C1423     Br1430   1.936       .  S
C1424      C1425   1.411       .  A
C1425      C1426   1.410       .  A
C1425     Br1432   1.935       .  S
C1426      C1427   1.420       .  A
C1426     Br1431   1.937       .  S
C1427      C1428   1.418       .  A
C1428     Br1429   1.930       .  S
C1433      C1434   1.421       .  A
C1433      C1438   1.412       .  A
C1433     Br1440   1.931       .  S
C1434      C1435   1.419   1_545  A
C1435      C1436   1.413       .  A
C1435     Br1442   1.931       .  S
C1436      C1437   1.415   1_565  A
C1436     Br1441   1.932       .  S
C1437      C1438   1.414       .  A
C1438     Br1439   1.938       .  S
C1443      C1444   1.416       .  A
C1443      C1448   1.411       .  A
C1443     Br1450   1.933       .  S
C1444      C1445   1.412   1_565  A
C1445      C1446   1.410       .  A
C1445     Br1452   1.924       .  S
C1446      C1447   1.412   1_545  A
C1446     Br1451   1.934       .  S
C1447      C1448   1.411       .  A
C1448     Br1449   1.933       .  S
C1453      C1454   1.416   1_556  A
C1453      C1458   1.408       .  A
C1453     Br1460   1.927       .  S
C1455      C1456   1.410       .  A
C1455     Br1462   1.936       .  S
C1456     Br1461   1.934       .  S
C1457      C1458   1.411   1_554  A
C1458     Br1459   1.935       .  S
C1463      C1468   1.410       .  A
C1463     Br1470   1.934       .  S
C1464      C1465   1.411   1_554  A
C1465      C1466   1.409       .  A
C1465     Br1472   1.936       .  S
C1466      C1467   1.418   1_556  A
C1466     Br1471   1.930       .  S
C1468     Br1469   1.936       .  S
