geometry optimzed in LAMMPS
_audit_creation_date              2020-11-30 
_audit_creation_method            'lammps2cif' 
_symmetry_space_group_name_H-M    'P1' 
_symmetry_Int_Tables_number       1 
_symmetry_cell_setting            triclinic 
loop_ 
_symmetry_equiv_pos_as_xyz 
  x,y,z 
_cell_length_a                    40.49709289042458 
_cell_length_b                    34.5727441130284 
_cell_length_c                    53.61690291393057 
_cell_angle_alpha                 90.17994938333625 
_cell_angle_beta                  89.69585653205421 
_cell_angle_gamma                 89.96353469345866 
loop_ 
_atom_site_label 
_atom_site_type_symbol 
_atom_site_fract_x 
_atom_site_fract_y 
_atom_site_fract_z 
_atom_site_charge 
O1          O  0.42827211  0.19212926  0.79697291    -0.75050
O2          O  0.45658215  0.14329936  0.77759150    -0.53950
C3          C  0.43339340  0.15627362  0.79220188     0.78680
O4          O  0.43597581  0.32022884  0.70061385    -0.59650
O5          O  0.46064774  0.36777223  0.72372949    -0.52680
C6          C  0.44048664  0.35581249  0.70662808     0.70700
O7          O  0.43172963  0.19319681  0.70357410    -0.74200
O8          O  0.45840945  0.14427322  0.72394799    -0.54770
C9          C  0.43644319  0.15742899  0.70866816     0.76700
O10         O  0.43119994  0.31786726  0.79991726    -0.59350
O11         O  0.45771403  0.36669501  0.77931493    -0.52470
C12         C  0.43580960  0.35366564  0.79492558     0.73290
Zr13       Zr  0.45009162  0.25500552  0.78731545     2.54710
O14         O  0.39002091  0.25663558  0.78666768    -0.79910
O15         O  0.45358941  0.25345032  0.83265081    -0.93330
Zr16       Zr  0.45275283  0.25626901  0.71402686     2.64680
O17         O  0.39264308  0.25748092  0.71230478    -0.98290
O18         O  0.46064953  0.25446437  0.66895358    -0.80350
O19         O  0.45094801  0.21772218  0.75042039    -0.83700
O20         O  0.45059915  0.29371772  0.75097062    -2.18410
O21         O  0.06367517  0.31822537  0.80145536    -0.67090
O22         O  0.03948695  0.36694176  0.77926332    -0.51660
C23         C  0.06030432  0.35400112  0.79554537     0.71670
O24         O  0.07179155  0.19333556  0.70879649    -0.60000
O25         O  0.04017491  0.14444105  0.72484432    -0.51980
C26         C  0.06495484  0.15761113  0.71207240     0.73480
O27         O  0.06764004  0.31819448  0.70464319    -0.71400
O28         O  0.03914271  0.36640377  0.72470456    -0.50070
C29         C  0.06166101  0.35378896  0.70946504     0.74860
O30         O  0.06628951  0.19060392  0.79849563    -0.66730
O31         O  0.03948228  0.14228110  0.77760008    -0.53920
C32         C  0.06185074  0.15480101  0.79287258     0.73240
Zr33       Zr  0.04495610  0.25442297  0.78938415     2.77540
O34         O  0.10516173  0.25270140  0.79096768    -0.97480
O35         O  0.03388706  0.25105976  0.83397737    -0.78300
Zr36       Zr  0.04749645  0.25543137  0.71625166     2.70070
O37         O  0.10733765  0.25828663  0.71224651    -0.79540
O38         O  0.03944512  0.25107387  0.67135672    -0.98630
Zr39       Zr  0.99853673  0.17689443  0.75146860     2.21500
Zr40       Zr  0.49892221  0.33355825  0.75221035     2.11130
O41         O  0.04695177  0.29299162  0.75304253    -2.47320
O42         O  0.04634287  0.21712252  0.75255749    -0.79340
O43         O  0.49760328  0.29459983  0.78919366    -0.71530
O44         O  0.00003932  0.21574588  0.71426664    -2.32490
O45         O  0.99734435  0.21486017  0.78894866    -2.28700
O46         O  0.50040500  0.29565651  0.71470473    -0.73290
H47         H  0.43088901  0.30944412  0.75069230     0.78700
H48         H  0.00075453  0.19959400  0.69953612     0.79790
H49         H  0.06684590  0.30835905  0.75331354     0.82020
H50         H  0.99673161  0.19844840  0.80349280     0.79620
H51         H  0.46448934  0.22688364  0.66483885     0.42660
H52         H  0.03391386  0.27776051  0.66617979     0.41630
H53         H  0.11549158  0.25691313  0.72958746     0.41310
H54         H  0.11238893  0.26483467  0.77516720     0.39240
H55         H  0.02369141  0.27631012  0.83817053     0.42370
H56         H  0.45943164  0.22641588  0.83677903     0.37160
H57         H  0.38422010  0.24912317  0.76940363     0.43270
H58         H  0.38596556  0.28020864  0.72242218     0.39690
H59         H  0.11187600  0.27135743  0.80398120     0.44610
H60         H  0.43045210  0.25631264  0.83843611     0.43330
H61         H  0.38747844  0.26477203  0.69491007     0.43470
H62         H  0.06185618  0.24650216  0.66448236     0.43820
C63         C  0.37231339  0.12194405  0.84092012     0.03380
C64         C  0.39981638  0.13960051  0.82960451    -0.12770
C65         C  0.40977458  0.12987366  0.80498571     0.00880
C66         C  0.39069303  0.10298932  0.79140193    -0.11300
C67         C  0.36246033  0.08616668  0.80250304     0.03370
C68         C  0.35552997  0.09330741  0.82761845    -0.10720
H69         H  0.41190327  0.16334491  0.83908605     0.08960
H70         H  0.39571875  0.09835470  0.77177195     0.06490
H71         H  0.33449311  0.07905010  0.83616250     0.06340
O72         O  0.30517767  0.08182368  0.69880803    -0.75050
O73         O  0.34340045  0.04722769  0.72054988    -0.53950
C74         C  0.33510477  0.07395009  0.70527664     0.78680
O75         O  0.19190792  0.07470245  0.79537292    -0.59650
O76         O  0.15303141  0.04353180  0.77220362    -0.52680
C77         C  0.16160588  0.06735309  0.78940062     0.70700
O78         O  0.30621404  0.07434733  0.79374688    -0.74200
O79         O  0.34536158  0.04245073  0.77087486    -0.54770
C80         C  0.33654971  0.06641955  0.78790110     0.76700
O81         O  0.19281454  0.07802230  0.69598593    -0.59350
O82         O  0.15511119  0.04559637  0.71989155    -0.52470
C83         C  0.16303714  0.07043452  0.70314162     0.73290
Zr84       Zr  0.24899605  0.05890591  0.70801706     2.54710
O85         O  0.24704548  0.12919882  0.70641991    -0.79910
O86         O  0.25090781  0.05369070  0.66271409    -0.93330
Zr87       Zr  0.24888002  0.05824810  0.78258584     2.64680
O88         O  0.24933401  0.12865977  0.78242708    -0.98290
O89         O  0.24937024  0.05864582  0.82799904    -0.80350
O90         O  0.28052119  0.05949175  0.74523905    -0.83700
O91         O  0.21736321  0.05971822  0.74552182    -2.18410
O92         O  0.19207752  0.42737515  0.69429025    -0.67090
O93         O  0.15489057  0.45938847  0.71909036    -0.51660
C94         C  0.16238722  0.43544534  0.70168445     0.71670
O95         O  0.30608951  0.42832253  0.79397638    -0.60000
O96         O  0.34506420  0.46111894  0.77168792    -0.51980
C97         C  0.33632251  0.43726060  0.78872365     0.73480
O98         O  0.19307908  0.42672326  0.79458949    -0.71400
O99         O  0.15382680  0.45880501  0.77244328    -0.50070
C100        C  0.16276090  0.43458107  0.78925857     0.74860
O101        O  0.30557020  0.42285658  0.69620155    -0.66730
O102        O  0.34300124  0.45634149  0.71954053    -0.53920
C103        C  0.33534883  0.43072810  0.70322137     0.73240
Zr104      Zr  0.24900286  0.44430798  0.70693867     2.77540
O105        O  0.24748842  0.37391675  0.70556727    -0.97480
O106        O  0.25106741  0.44930080  0.66167546    -0.78300
Zr107      Zr  0.24932635  0.44321807  0.78136038     2.70070
O108        O  0.24965387  0.37297933  0.77802819    -0.79540
O109        O  0.25042551  0.43863527  0.82667761    -0.98630
Zr110      Zr  0.31207325  0.50134276  0.74481692     2.21500
Zr111      Zr  0.18593296  0.50144902  0.74571294     2.11130
O112        O  0.21736134  0.44299363  0.74446257    -2.47320
O113        O  0.28099587  0.44287707  0.74405317    -0.79340
O114        O  0.21658628  0.00169654  0.70754270    -0.71530
O115        O  0.28079448  0.50085666  0.78260789    -2.32490
O116        O  0.28155421  0.50166477  0.70679609    -2.28700
O117        O  0.21710840  0.50061709  0.78322891    -0.73290
H118        H  0.20316109  0.08217100  0.74577552     0.78700
H119        H  0.29492999  0.50080182  0.79705495     0.79790
H120        H  0.20306081  0.42064311  0.74445597     0.82020
H121        H  0.29622692  0.00190446  0.69252909     0.79620
H122        H  0.26315355  0.03612686  0.83258680     0.42660
H123        H  0.23267542  0.45624270  0.83249906     0.41630
H124        H  0.26140192  0.36755382  0.76215674     0.41310
H125        H  0.22827383  0.36669260  0.71605042     0.39240
H126        H  0.23466067  0.46954696  0.65762883     0.42370
H127        H  0.27382079  0.04569545  0.65872589     0.37160
H128        H  0.24933970  0.13746369  0.72402247     0.43270
H129        H  0.22880473  0.13609237  0.77371107     0.39690
H130        H  0.24065462  0.36762196  0.68832128     0.44610
H131        H  0.24947168  0.08074561  0.65681535     0.43330
H132        H  0.24534808  0.13603476  0.80004921     0.43470
H133        H  0.24209297  0.41234955  0.83041563     0.43820
C134        C  0.12262964  0.38229252  0.84342730     0.03380
C135        C  0.09186892  0.37223705  0.83322492    -0.12770
C136        C  0.08436473  0.38002391  0.80804299     0.00880
C137        C  0.10656760  0.40257575  0.79383028    -0.11300
C138        C  0.13693020  0.41455333  0.80418395     0.03370
C139        C  0.14459300  0.40387955  0.82872921    -0.10720
H140        H  0.07455473  0.35549434  0.84420361     0.08960
H141        H  0.10179263  0.40747092  0.77422589     0.06490
H142        H  0.16864733  0.41119073  0.83612500     0.06340
C143        C  0.37294690  0.38481750  0.84285691     0.03380
C144        C  0.40224863  0.37006060  0.83240446    -0.12770
C145        C  0.41205513  0.37974311  0.80777937     0.00880
C146        C  0.39188045  0.40471800  0.79373743    -0.11300
C147        C  0.36219718  0.41904457  0.80407450     0.03370
C148        C  0.35434446  0.41097930  0.82893003    -0.10720
H149        H  0.41566449  0.34790774  0.84240560     0.08960
H150        H  0.39722176  0.40927579  0.77414049     0.06490
H151        H  0.33161820  0.42241750  0.83682516     0.06340
C152        C  0.12017064  0.12060209  0.84245089     0.03380
C153        C  0.09208830  0.13579051  0.83091255    -0.12770
C154        C  0.08506983  0.12788388  0.80566135     0.00880
C155        C  0.10651620  0.10292525  0.79221769    -0.11300
C156        C  0.13523422  0.08775619  0.80374000     0.03370
C157        C  0.14120844  0.09627469  0.82892463    -0.10720
H158        H  0.07733633  0.15689922  0.84101746     0.08960
H159        H  0.10273007  0.09851451  0.77244227     0.06490
H160        H  0.16377569  0.08629557  0.83761724     0.06340
C161        C  0.10566412  0.11509495  0.65560843     0.03380
C162        C  0.08399193  0.13495606  0.67152930    -0.12770
C163        C  0.08614596  0.13167958  0.69735868     0.00880
C164        C  0.11219220  0.11053234  0.70768613    -0.11300
C165        C  0.13575889  0.09250729  0.69197211     0.03370
C166        C  0.13225897  0.09458964  0.66585211    -0.10720
H167        H  0.06385940  0.15154192  0.66358337     0.08960
H168        H  0.11498781  0.10951110  0.72775107     0.06490
H169        H  0.14874830  0.07835056  0.65375730     0.06340
C170        C  0.09813679  0.40580199  0.65436144     0.03380
C171        C  0.07649415  0.38473127  0.66974257    -0.12770
C172        C  0.08231239  0.38085800  0.69524242     0.00880
C173        C  0.11124442  0.39635205  0.70536373    -0.11300
C174        C  0.13417254  0.41581297  0.69001914     0.03370
C175        C  0.12747995  0.42065697  0.66451186    -0.10720
H176        H  0.05437022  0.37203055  0.66186269     0.08960
H177        H  0.11632066  0.39253855  0.72504033     0.06490
H178        H  0.14377458  0.43820885  0.65313790     0.06340
C179        C  0.38903029  0.11621254  0.65501183     0.03380
C180        C  0.36218829  0.09936028  0.66741609    -0.12770
C181        C  0.36202799  0.09595440  0.69338107     0.00880
C182        C  0.38836137  0.11162008  0.70728114    -0.11300
C183        C  0.41431296  0.13109298  0.69504275     0.03370
C184        C  0.41455118  0.13287021  0.66886748    -0.10720
H185        H  0.34261403  0.08607895  0.65663347     0.08960
H186        H  0.38766737  0.11057401  0.72745226     0.06490
H187        H  0.43485962  0.14696379  0.65927003     0.06340
C188        C  0.39486159  0.40091650  0.65238000     0.03380
C189        C  0.36490972  0.40882592  0.66494974    -0.12770
C190        C  0.36344361  0.41080189  0.69101145     0.00880
C191        C  0.39042285  0.39770787  0.70510311    -0.11300
C192        C  0.41879223  0.38331360  0.69316730     0.03370
C193        C  0.42149632  0.38687807  0.66704070    -0.10720
H194        H  0.34258208  0.41471913  0.65487531     0.08960
H195        H  0.38843868  0.39647203  0.72525463     0.06490
H196        H  0.44452868  0.37805049  0.65850626     0.06340
O197        O  0.31467206  0.32542924  0.95081506    -0.75050
O198        O  0.28258804  0.29265758  0.92309481    -0.53950
C199        C  0.30569983  0.31667177  0.92841578     0.78680
O200        O  0.31304668  0.17447538  0.03391017    -0.59650
O201        O  0.28285384  0.20836150  0.06269908    -0.52680
C202        C  0.30509400  0.18368589  0.05641352     0.70700
O203        O  0.31377329  0.17748044  0.94979162    -0.74200
O204        O  0.28157242  0.21053755  0.92233476    -0.54770
C205        C  0.30477420  0.18649883  0.92755388     0.76700
O206        O  0.31178717  0.32820835  0.03632453    -0.59350
O207        O  0.28204082  0.29170829  0.06371379    -0.52470
C208        C  0.30322207  0.31808219  0.05864381     0.73290
Zr209      Zr  0.29667263  0.30887187  0.99340851     2.54710
O210        O  0.35668416  0.30588908  0.99449506    -0.79910
O211        O  0.29642540  0.37927927  0.99275224    -0.93330
Zr212      Zr  0.29513288  0.19285357  0.99214169     2.64680
O213        O  0.35524124  0.19034106  0.99140844    -0.98290
O214        O  0.29095248  0.12258169  0.99145010    -0.80350
O215        O  0.29590999  0.25128981  0.96907724    -0.83700
O216        O  0.29704135  0.25041079  0.01640012    -2.18410
O217        O  0.18144318  0.32836189  0.03703287    -0.67090
O218        O  0.21248686  0.29360782  0.06444038    -0.51660
C219        C  0.19034179  0.31895078  0.05921627     0.71670
O220        O  0.17647177  0.17940156  0.95074148    -0.60000
O221        O  0.20849381  0.21220127  0.92297633    -0.51980
C222        C  0.18469222  0.18912532  0.92826925     0.73480
O223        O  0.17778158  0.17729034  0.03617187    -0.71400
O224        O  0.21128360  0.20958570  0.06303390    -0.50070
C225        C  0.18719439  0.18673988  0.05837430     0.74860
O226        O  0.17977851  0.32976969  0.95319762    -0.66730
O227        O  0.20773410  0.29375043  0.92421721    -0.53920
C228        C  0.18631842  0.31945819  0.93065600     0.73240
Zr229      Zr  0.19763180  0.30999937  0.99454669     2.77540
O230        O  0.13749128  0.30924943  0.99479591    -0.97480
O231        O  0.20012278  0.38032139  0.99509469    -0.78300
Zr232      Zr  0.19611286  0.19360835  0.99337722     2.70070
O233        O  0.13609234  0.19034197  0.99424792    -0.79540
O234        O  0.20104872  0.12344288  0.99232465    -0.98630
Zr235      Zr  0.24558141  0.25215850  0.94662623     2.21500
Zr236      Zr  0.24698073  0.25070094  0.03963938     2.11130
O237        O  0.19641657  0.25152352  0.01746804    -2.47320
O238        O  0.19595588  0.25232461  0.97036149    -0.79340
O239        O  0.24741435  0.31004806  0.01768004    -0.71530
O240        O  0.24528202  0.19272144  0.96885310    -2.32490
O241        O  0.24678061  0.31069152  0.97008103    -2.28700
O242        O  0.24600057  0.19188221  0.01665252    -0.73290
H243        H  0.31603928  0.25012474  0.02721501     0.78700
H244        H  0.24493572  0.17095915  0.95751228     0.79790
H245        H  0.17768205  0.25190240  0.02868265     0.82020
H246        H  0.24679375  0.33290316  0.95919388     0.79620
H247        H  0.27744047  0.11658301  0.97660154     0.42660
H248        H  0.21127273  0.11666572  0.00846839     0.41630
H249        H  0.12887067  0.21722317  0.99102141     0.41310
H250        H  0.13134402  0.29267276  0.00910949     0.39240
H251        H  0.22145783  0.38632555  0.00316138     0.42370
H252        H  0.28329671  0.38618202  0.97788892     0.37160
H253        H  0.36218034  0.28047850  0.98697901     0.43270
H254        H  0.36226211  0.20720815  0.00536347     0.39690
H255        H  0.13105993  0.33570281  0.00003046     0.44610
H256        H  0.31937278  0.38643688  0.98828913     0.43330
H257        H  0.36076889  0.16380772  0.99690143     0.43470
H258        H  0.17803507  0.11402185  0.99375457     0.43820
C259        C  0.13260177  0.37622823  0.15142493     0.03380
C260        C  0.14286794  0.41086854  0.16305912    -0.12770
C261        C  0.13513387  0.41892820  0.18825251     0.00880
C262        C  0.11317632  0.39466664  0.20097939    -0.11300
C263        C  0.10199350  0.36069729  0.18947563     0.03370
C264        C  0.11294696  0.35073930  0.16550714    -0.10720
H265        H  0.15883804  0.43080405  0.15322383     0.08960
H266        H  0.10655262  0.40070890  0.22021735     0.06490
H267        H  0.10616472  0.32268906  0.15820777     0.06340
C268        C  0.35831572  0.13457138  0.14989766     0.03380
C269        C  0.37480165  0.16544635  0.16196505    -0.12770
C270        C  0.38028620  0.16519457  0.18774618     0.00880
C271        C  0.36714329  0.13534111  0.20231738    -0.11300
C272        C  0.35068490  0.10453770  0.19084631     0.03370
C273        C  0.34896451  0.10283567  0.16476061    -0.10720
H274        H  0.38325797  0.19045314  0.15171666     0.08960
H275        H  0.36946636  0.13624807  0.22241947     0.06490
H276        H  0.33892056  0.07692730  0.15670637     0.06340
C277        C  0.35501019  0.38259877  0.15008113     0.03380
C278        C  0.37681796  0.35811146  0.16251582    -0.12770
C279        C  0.38418842  0.36447315  0.18765852     0.00880
C280        C  0.37053057  0.39620950  0.20048709    -0.11300
C281        C  0.34883757  0.42126743  0.18817316     0.03370
C282        C  0.34182531  0.41465848  0.16276369    -0.10720
H283        H  0.38690281  0.33301643  0.15296073     0.08960
H284        H  0.37538604  0.40008444  0.22020250     0.06490
H285        H  0.32370927  0.43253336  0.15341967     0.06340
O286        O  0.18807027  0.43941193  0.19688188    -0.75050
O287        O  0.14660869  0.46780409  0.21942275    -0.53950
C288        C  0.15756113  0.44446773  0.20235462     0.78680
O289        O  0.29470815  0.43111819  0.29502917    -0.59650
O290        O  0.33527995  0.46599949  0.27545513    -0.52680
C291        C  0.32495783  0.43870232  0.28996970     0.70700
O292        O  0.18625883  0.42958931  0.29282907    -0.74200
O293        O  0.14610279  0.46533594  0.27370905    -0.54770
C294        C  0.15612230  0.43753042  0.28780399     0.76700
O295        O  0.29568163  0.44097348  0.19673407    -0.59350
O296        O  0.33633196  0.46873194  0.22011186    -0.52470
C297        C  0.32595432  0.44596947  0.20259295     0.73290
Zr298      Zr  0.24173197  0.45925861  0.21059164     2.54710
O299        O  0.24208470  0.38891932  0.21231523    -0.79910
O300        O  0.24282478  0.46261066  0.16520178    -0.93330
Zr301      Zr  0.24063002  0.45425616  0.28380970     2.64680
O302        O  0.23990596  0.38377679  0.28392731    -0.98290
O303        O  0.23951142  0.45943491  0.32913241    -0.80350
O304        O  0.20884315  0.45590526  0.24689481    -0.83700
O305        O  0.27357677  0.45597731  0.24722214    -2.18410
O306        O  0.29668137  0.08794614  0.20003002    -0.67090
O307        O  0.33738098  0.05700832  0.22167189    -0.51660
C308        C  0.32708897  0.08120028  0.20518865     0.71670
O309        O  0.18701961  0.09123247  0.29660205    -0.60000
O310        O  0.14687722  0.06095597  0.27393480    -0.51980
C311        C  0.15712801  0.08648402  0.28978382     0.73480
O312        O  0.29287277  0.09294081  0.29699884    -0.71400
O313        O  0.33403201  0.06318165  0.27469963    -0.50070
C314        C  0.32297798  0.08907694  0.29019318     0.74860
O315        O  0.18717215  0.09056102  0.20081319    -0.66730
O316        O  0.14599910  0.05687615  0.22032463    -0.53920
C317        C  0.15673917  0.08245646  0.20480523     0.73240
Zr318      Zr  0.24147811  0.07152630  0.21394730     2.77540
O319        O  0.24218946  0.14125638  0.22063240    -0.97480
O320        O  0.23850166  0.07940602  0.16904390    -0.78300
Zr321      Zr  0.24037492  0.06527041  0.28720530     2.70070
O322        O  0.23974786  0.13390636  0.29742526    -0.79540
O323        O  0.23994374  0.04800991  0.33119226    -0.98630
Zr324      Zr  0.17537847  0.01256370  0.24793030     2.21500
Zr325      Zr  0.30686025  0.01302631  0.24888201     2.11130
O326        O  0.27294348  0.06960394  0.25052527    -2.47320
O327        O  0.20857428  0.06943036  0.25036769    -0.79340
O328        O  0.27476060  0.01547018  0.21155153    -0.71530
O329        O  0.20649167  0.00981349  0.28584272    -2.32490
O330        O  0.20871335  0.01525119  0.21109486    -2.28700
O331        O  0.27462467  0.00993289  0.28646622    -0.73290
H332        H  0.28716457  0.43303475  0.24644643     0.78700
H333        H  0.19210407  0.00901874  0.30026491     0.79790
H334        H  0.28600461  0.09292678  0.25055620     0.82020
H335        H  0.19526735  0.01593720  0.19628154     0.79620
H336        H  0.21584699  0.46187791  0.33360091     0.42660
H337        H  0.26347516  0.04833192  0.33611118     0.41630
H338        H  0.24042806  0.14702638  0.28103833     0.41310
H339        H  0.26523391  0.14746241  0.22522787     0.39240
H340        H  0.22654003  0.05622266  0.16306848     0.42370
H341        H  0.22434443  0.48000273  0.16078761     0.37160
H342        H  0.22788957  0.38250360  0.22681169     0.43270
H343        H  0.25825331  0.37591431  0.27272929     0.39690
H344        H  0.23955125  0.15232504  0.20374791     0.44610
H345        H  0.23558461  0.43670043  0.15954106     0.43330
H346        H  0.24728566  0.37640802  0.30083978     0.43470
H347        H  0.23018233  0.07079392  0.33970278     0.43820
O348        O  0.04691204  0.34668785  0.19759705    -0.75050
O349        O  0.08630538  0.30686163  0.21394005    -0.53950
C350        C  0.07696507  0.33660953  0.20143718     0.78680
O351        O  0.43638425  0.33637638  0.29052485    -0.59650
O352        O  0.39532693  0.30797272  0.26797718    -0.52680
C353        C  0.40598288  0.33115326  0.28500342     0.70700
O354        O  0.04481229  0.33602010  0.29098958    -0.74200
O355        O  0.08530567  0.30647966  0.26800564    -0.54770
C356        C  0.07508198  0.33011712  0.28513784     0.76700
O357        O  0.43825472  0.34641565  0.19458178    -0.59350
O358        O  0.39745004  0.31178467  0.21402768    -0.52470
C359        C  0.40797933  0.33915414  0.19972280     0.73290
Zr360      Zr  0.99195536  0.32080324  0.20433174     2.54710
O361        O  0.99162540  0.39058566  0.19852516    -0.79910
O362        O  0.49437020  0.31042709  0.15942626    -0.93330
Zr363      Zr  0.99080418  0.31677778  0.27793814     2.64680
O364        O  0.99243781  0.38722147  0.27969796    -0.98290
O365        O  0.48842093  0.30747252  0.32291777    -0.80350
O366        O  0.02339605  0.31950734  0.24131370    -0.83700
O367        O  0.45936238  0.32049982  0.24120363    -2.18410
O368        O  0.43422802  0.18661688  0.19155966    -0.67090
O369        O  0.39463208  0.21785256  0.21451721    -0.51660
C370        C  0.40424746  0.19222414  0.19851535     0.71670
O371        O  0.04516251  0.18428994  0.28673836    -0.60000
O372        O  0.08584209  0.21820805  0.26675796    -0.51980
C373        C  0.07551683  0.19247264  0.28219613     0.73480
O374        O  0.43556240  0.18738313  0.28878307    -0.71400
O375        O  0.39536803  0.22041402  0.26790648    -0.50070
C376        C  0.40536623  0.19546630  0.28403063     0.74860
O377        O  0.04243398  0.18118505  0.19283027    -0.66730
O378        O  0.08306814  0.21246482  0.21447092    -0.53920
C379        C  0.07248404  0.18620616  0.19930835     0.73240
Zr380      Zr  0.48929308  0.20897897  0.20159125     2.77540
O381        O  0.48924656  0.13930018  0.19445201    -0.97480
O382        O  0.49078991  0.22185074  0.15698440    -0.78300
Zr383      Zr  0.49024968  0.20459490  0.27518285     2.70070
O384        O  0.48883276  0.13438318  0.27196562    -0.79540
O385        O  0.99216481  0.20410710  0.32059037    -0.98630
Zr386      Zr  0.05561730  0.26195380  0.23995975     2.21500
Zr387      Zr  0.42536132  0.26405322  0.24009837     2.11130
O388        O  0.45772464  0.20620906  0.23874877    -2.47320
O389        O  0.02178845  0.20566297  0.23818231    -0.79340
O390        O  0.45689507  0.26586937  0.20222324    -0.71530
O391        O  0.02348846  0.26039824  0.27732007    -2.32490
O392        O  0.02432136  0.26399259  0.20216750    -2.28700
O393        O  0.45738827  0.26109242  0.27728273    -0.73290
H394        H  0.44614981  0.34373349  0.24196397     0.78700
H395        H  0.03733017  0.25956714  0.29192170     0.79790
H396        H  0.44395735  0.18341849  0.23872167     0.82020
H397        H  0.03863203  0.26426705  0.18769111     0.79620
H398        H  0.00948388  0.29463173  0.32721604     0.42660
H399        H  0.47346288  0.22066651  0.32596520     0.41630
H400        H  0.99840005  0.12869131  0.25532093     0.41310
H401        H  0.47261133  0.12885256  0.20623473     0.39240
H402        H  0.46763965  0.22795861  0.15262692     0.42370
H403        H  0.01537419  0.32260782  0.15415021     0.37160
H404        H  0.98962581  0.40128671  0.21561555     0.43270
H405        H  0.48121333  0.39572728  0.26430185     0.39690
H406        H  0.47944646  0.13569758  0.17772276     0.44610
H407        H  0.97701190  0.32751530  0.15261313     0.43330
H408        H  0.97711372  0.39463601  0.29334320     0.43470
H409        H  0.48548583  0.17756438  0.32532184     0.43820
C410        C  0.12455158  0.13785005  0.15032923     0.03380
C411        C  0.10171074  0.16231680  0.16204919    -0.12770
C412        C  0.09595353  0.15958885  0.18771927     0.00880
C413        C  0.11145358  0.13062556  0.20165505    -0.11300
C414        C  0.13359040  0.10516797  0.18991456     0.03370
C415        C  0.13988714  0.10880358  0.16418739    -0.10720
H416        H  0.09035229  0.18549058  0.15152705     0.08960
H417        H  0.10745747  0.12907008  0.22161606     0.06490
H418        H  0.15911767  0.09147631  0.15548689     0.06340
C419        C  0.11128063  0.14511538  0.33800902     0.03380
C420        C  0.13097713  0.11639261  0.32697899    -0.12770
C421        C  0.13402734  0.11412739  0.30088742     0.00880
C422        C  0.11816679  0.14139599  0.28583928    -0.11300
C423        C  0.09929760  0.17076888  0.29687723     0.03370
C424        C  0.09660968  0.17305752  0.32285633    -0.10720
H425        H  0.14205489  0.09424737  0.33851894     0.08960
H426        H  0.11991121  0.13925733  0.26571669     0.06490
H427        H  0.07970213  0.19384397  0.33117472     0.06340
C428        C  0.36898142  0.14516729  0.33913421     0.03380
C429        C  0.34711013  0.11949674  0.32741224    -0.12770
C430        C  0.34523296  0.11759426  0.30141092     0.00880
C431        C  0.36182665  0.14522438  0.28696490    -0.11300
C432        C  0.38142921  0.17339877  0.29865593     0.03370
C433        C  0.38511889  0.17301325  0.32471998    -0.10720
H434        H  0.33446150  0.09778034  0.33847104     0.08960
H435        H  0.36035335  0.14405247  0.26682093     0.06490
H436        H  0.40348635  0.19145727  0.33335643     0.06340
C437        C  0.10436912  0.39163569  0.33793939     0.03380
C438        C  0.09266532  0.35896410  0.32505836    -0.12770
C439        C  0.09829788  0.35434523  0.29927746     0.00880
C440        C  0.11860692  0.38080200  0.28678342    -0.11300
C441        C  0.13194964  0.41235078  0.29978843     0.03370
C442        C  0.12483169  0.41770873  0.32517728    -0.10720
H443        H  0.07673612  0.33857954  0.33461178     0.08960
H444        H  0.12290431  0.37783692  0.26689356     0.06490
H445        H  0.13455941  0.44287200  0.33474999     0.06340
C446        C  0.37772951  0.39101852  0.33859354     0.03380
C447        C  0.35649832  0.41727032  0.32693246    -0.12770
C448        C  0.34884525  0.41275977  0.30159397     0.00880
C449        C  0.36205859  0.38154366  0.28795747    -0.11300
C450        C  0.38313822  0.35512719  0.29966760     0.03370
C451        C  0.38993178  0.35945605  0.32514339    -0.10720
H452        H  0.34735147  0.44220207  0.33716173     0.08960
H453        H  0.35727461  0.37901057  0.26814348     0.06490
H454        H  0.40790223  0.34062562  0.33388884     0.06340
O455        O  0.05713635  0.44882371  0.53836367    -0.75050
O456        O  0.02322626  0.48467264  0.56300441    -0.53950
C457        C  0.04582897  0.45944688  0.55996383     0.78680
O458        O  0.05745749  0.10346580  0.45112886    -0.59650
O459        O  0.03091726  0.06442482  0.42341812    -0.52680
C460        C  0.05028513  0.09246869  0.42871244     0.70700
O461        O  0.05887542  0.09710458  0.53757214    -0.74200
O462        O  0.02514067  0.06003452  0.56127211    -0.54770
C463        C  0.04821771  0.08467714  0.55890449     0.76700
O464        O  0.06179829  0.44456845  0.45295653    -0.59350
O465        O  0.03184516  0.47825262  0.42427743    -0.52470
C466        C  0.05343870  0.45269889  0.43044742     0.73290
Zr467      Zr  0.04411031  0.46585864  0.49445213     2.54710
O468        O  0.10399480  0.47138663  0.49564213    -0.79910
O469        O  0.04661024  0.39552078  0.49518105    -0.93330
Zr470      Zr  0.04221090  0.08269010  0.49386065     2.64680
O471        O  0.10234894  0.08355321  0.49308225    -0.98290
O472        O  0.04005061  0.15301111  0.49623540    -0.80350
O473        O  0.04186767  0.02436830  0.51728348    -0.83700
O474        O  0.04475804  0.02393880  0.47046078    -2.18410
O475        O  0.43315449  0.44188285  0.44782650    -0.67090
O476        O  0.46385353  0.97830895  0.42123956    -0.51660
C477        C  0.44298557  0.45128860  0.42577890     0.71670
O478        O  0.42030654  0.09480381  0.53333257    -0.60000
O479        O  0.45270213  0.06132321  0.56027901    -0.51980
C480        C  0.42864972  0.08388352  0.55540598     0.73480
O481        O  0.42690097  0.09976820  0.44919938    -0.71400
O482        O  0.45793882  0.06310405  0.42257813    -0.50070
C483        C  0.43527045  0.08840804  0.42720808     0.74860
O484        O  0.42721390  0.44207678  0.53229355    -0.66730
O485        O  0.45437180  0.47980541  0.56040529    -0.53920
C486        C  0.43434738  0.45254575  0.55470026     0.73240
Zr487      Zr  0.44400141  0.46348541  0.49049443     2.77540
O488        O  0.38400158  0.46687284  0.48861343    -0.97480
O489        O  0.44270537  0.39314725  0.49004077    -0.78300
Zr490      Zr  0.44256725  0.08092038  0.49129578     2.70070
O491        O  0.38276018  0.08518961  0.48815387    -0.79540
O492        O  0.44787462  0.15099536  0.49358424    -0.98630
Zr493      Zr  0.48946324  0.02229249  0.53672010     2.21500
Zr494      Zr  0.49544814  0.02247525  0.44638820     2.11130
O495        O  0.44387592  0.02220390  0.46756621    -2.47320
O496        O  0.44006671  0.02185435  0.51384080    -0.79340
O497        O  0.49566048  0.46401219  0.46927261    -0.71530
O498        O  0.49091048  0.08262380  0.51600174    -2.32490
O499        O  0.49238236  0.46284819  0.51526934    -2.28700
O500        O  0.49360748  0.08184155  0.46888185    -0.73290
H501        H  0.06400296  0.02411958  0.45973856     0.78700
H502        H  0.48994430  0.10390360  0.52770571     0.79790
H503        H  0.42577481  0.02171120  0.45591511     0.82020
H504        H  0.49209071  0.44111169  0.52653665     0.79620
H505        H  0.01973937  0.15881038  0.50589762     0.42660
H506        H  0.46105342  0.15799067  0.47865909     0.41630
H507        H  0.37500815  0.05838055  0.49091477     0.41310
H508        H  0.37924177  0.48114229  0.47305966     0.39240
H509        H  0.46617338  0.38545433  0.48839189     0.42370
H510        H  0.03094464  0.38783806  0.50850996     0.37160
H511        H  0.10808703  0.99706635  0.50324104     0.43270
H512        H  0.10859760  0.06831302  0.47811945     0.39690
H513        H  0.37700679  0.43999083  0.48505185     0.44610
H514        H  0.06868742  0.38956211  0.50203020     0.43330
H515        H  0.10814214  0.11054909  0.48877545     0.43470
H516        H  0.42542570  0.16083831  0.49003392     0.43820
C517        C  0.42835179  0.43065852  0.40401890     0.00090
C518        C  0.39632026  0.41498636  0.40636442    -0.11780
C519        C  0.37914156  0.40143607  0.38540810     0.02330
C520        C  0.39456539  0.40193397  0.36187135     0.00010
C521        C  0.42705658  0.41511274  0.35967077    -0.11720
C522        C  0.44381260  0.43017094  0.38012543     0.02210
H523        H  0.38384381  0.41542637  0.42430674     0.15190
H524        H  0.43862725  0.41606410  0.34135974     0.15190
C525        C  0.47411560  0.45061214  0.37469571     0.36840
C526        C  0.34563054  0.38798211  0.38832258     0.36750
N527        N  0.49731083  0.46859724  0.36969131    -0.43500
N528        N  0.31872583  0.37727030  0.39064592    -0.43500
C529        C  0.06851032  0.43048127  0.40973315     0.00090
C530        C  0.04711203  0.41252162  0.39299174    -0.11780
C531        C  0.05816102  0.39959901  0.36971915     0.02330
C532        C  0.09219396  0.40120243  0.36360545     0.00010
C533        C  0.11426830  0.41568355  0.38163739    -0.11720
C534        C  0.10263404  0.43068013  0.40448913     0.02210
H535        H  0.02109762  0.41080694  0.39762232     0.15190
H536        H  0.14047055  0.41679552  0.37744655     0.15190
C537        C  0.12580360  0.44779262  0.42163083     0.36840
C538        C  0.03331313  0.38965028  0.35161818     0.36750
N539        N  0.14434945  0.46143309  0.43544497    -0.43500
N540        N  0.01310123  0.38260914  0.33714885    -0.43500
C541        C  0.38363122  0.13310486  0.36312199     0.00090
C542        C  0.39542734  0.09532025  0.36374624    -0.11780
C543        C  0.41061863  0.08063771  0.38461867     0.02330
C544        C  0.41682364  0.10417591  0.40553759     0.00010
C545        C  0.40483951  0.14255745  0.40528522    -0.11720
C546        C  0.38812673  0.15713715  0.38419322     0.02210
H547        H  0.39252173  0.07657934  0.34759710     0.15190
H548        H  0.40865384  0.16109334  0.42135555     0.15190
C549        C  0.37514958  0.19598681  0.38477436     0.36840
C550        C  0.41707603  0.04014733  0.38395190     0.36750
N551        N  0.36450871  0.22705783  0.38528825    -0.43500
N552        N  0.42036469  0.00730805  0.38179665    -0.43500
C553        C  0.06497289  0.11247142  0.40683405     0.00090
C554        C  0.09773793  0.12619019  0.40745765    -0.11780
C555        C  0.11358609  0.13869270  0.38542555     0.02330
C556        C  0.09630606  0.13788773  0.36268172     0.00010
C557        C  0.06323976  0.12678706  0.36249441    -0.11720
C558        C  0.04752280  0.11424170  0.38398390     0.02210
H559        H  0.11139848  0.12542343  0.42478394     0.15190
H560        H  0.04984086  0.12635122  0.34498705     0.15190
C561        C  0.01369046  0.10210926  0.38113038     0.36840
C562        C  0.14724134  0.15217634  0.38646942     0.36750
N563        N  0.48686997  0.09225695  0.37754069    -0.43500
N564        N  0.17415332  0.16332317  0.38731159    -0.43500
C565        C  0.17385512  0.33816257  0.08050402     0.00090
C566        C  0.14167136  0.32745090  0.08705037    -0.11780
C567        C  0.12678613  0.34158114  0.10897269     0.02330
C568        C  0.14516266  0.36498710  0.12584680     0.00010
C569        C  0.17699417  0.37701756  0.11822990    -0.11720
C570        C  0.19064013  0.36511934  0.09540726     0.02210
H571        H  0.12815975  0.30782445  0.07501892     0.15190
H572        H  0.19183252  0.39535998  0.13010219     0.15190
C573        C  0.22086219  0.38282871  0.08680596     0.36840
C574        C  0.09237659  0.33241892  0.11289918     0.36750
N575        N  0.24443135  0.39800905  0.07947190    -0.43500
N576        N  0.06481419  0.32479733  0.11587074    -0.43500
C577        C  0.31730273  0.33818478  0.08068890     0.00090
C578        C  0.29670523  0.34250740  0.10170207    -0.11780
C579        C  0.30817837  0.35875315  0.12381401     0.02330
C580        C  0.34142851  0.37032734  0.12568747     0.00010
C581        C  0.36238301  0.36594401  0.10485476    -0.11720
C582        C  0.35053201  0.35028319  0.08234031     0.02210
H583        H  0.27138656  0.33239401  0.10106141     0.15190
H584        H  0.38818200  0.37393881  0.10639245     0.15190
C585        C  0.37345989  0.34427137  0.06201384     0.36840
C586        C  0.28565569  0.36093352  0.14476453     0.36750
N587        N  0.39192228  0.33923771  0.04577743    -0.43500
N588        N  0.26745887  0.36252696  0.16144262    -0.43500
C589        C  0.13906556  0.14977293  0.12624290     0.00090
C590        C  0.13459576  0.12768121  0.10447400    -0.11780
C591        C  0.14935248  0.13897396  0.08175771     0.02330
C592        C  0.16909995  0.17275006  0.08089113     0.00010
C593        C  0.17289533  0.19464257  0.10291901    -0.11720
C594        C  0.15861113  0.18332342  0.12531102     0.02210
H595        H  0.11974665  0.10162289  0.10527404     0.15190
H596        H  0.18747181  0.22095587  0.10290622     0.15190
C597        C  0.16543596  0.20605488  0.14739832     0.36840
C598        C  0.14448793  0.11496152  0.06003590     0.36750
N599        N  0.17092596  0.22406895  0.16512509    -0.43500
N600        N  0.14047677  0.09563863  0.04264992    -0.43500
C601        C  0.32261409  0.16481604  0.07687627     0.00090
C602        C  0.30626682  0.13606277  0.09018266    -0.11780
C603        C  0.31883915  0.12218752  0.11267631     0.02330
C604        C  0.34844609  0.13827001  0.12278962     0.00010
C605        C  0.36664603  0.16368941  0.10730314    -0.11720
C606        C  0.35360385  0.17775078  0.08494969     0.02210
H607        H  0.28280854  0.12530303  0.08331623     0.15190
H608        H  0.39057875  0.17427151  0.11305691     0.15190
C609        C  0.37119545  0.20761971  0.07160044     0.36840
C610        C  0.30015471  0.09136015  0.12392355     0.36750
N611        N  0.38505633  0.23180562  0.06097105    -0.43500
N612        N  0.28525990  0.06553160  0.13176796    -0.43500
C613        C  0.41899822  0.43226615  0.57589739     0.00090
C614        C  0.39166618  0.44920670  0.58741599    -0.11780
C615        C  0.38154338  0.43815076  0.61138773     0.02330
C616        C  0.39918944  0.40873367  0.62462405     0.00010
C617        C  0.42432845  0.38891924  0.61128066    -0.11720
C618        C  0.43480462  0.40106599  0.58756385     0.02210
H619        H  0.37928729  0.47298025  0.57815102     0.15190
H620        H  0.43700303  0.36465386  0.61957862     0.15190
C621        C  0.46337802  0.38296151  0.57626693     0.36840
C622        C  0.35404480  0.45978918  0.62148421     0.36750
N623        N  0.98641354  0.36879774  0.56720265    -0.43500
N624        N  0.33181678  0.47751949  0.62897483    -0.43500
C625        C  0.40933377  0.09493115  0.57763517     0.00090
C626        C  0.40203583  0.06443090  0.59397576    -0.11780
C627        C  0.39565466  0.07126054  0.61905677     0.02330
C628        C  0.39329765  0.10950062  0.62795990     0.00010
C629        C  0.39810596  0.14046313  0.61134370    -0.11720
C630        C  0.40663273  0.13339081  0.58623982     0.02210
H631        H  0.40531527  0.03480078  0.58772857     0.15190
H632        H  0.39695853  0.16992575  0.61828608     0.15190
C633        C  0.41540492  0.16552708  0.57043859     0.36840
C634        C  0.39689050  0.03885228  0.63601652     0.36750
N635        N  0.42257070  0.19131050  0.55780819    -0.43500
N636        N  0.39872921  0.01372626  0.65015151    -0.43500
C637        C  0.08626359  0.41774275  0.62937977     0.00090
C638        C  0.05462525  0.43371016  0.62847556    -0.11780
C639        C  0.04068350  0.44547011  0.60619976     0.02330
C640        C  0.05899848  0.44267176  0.58350607     0.00010
C641        C  0.09079807  0.42615508  0.58424993    -0.11720
C642        C  0.10451222  0.41367197  0.60698704     0.02210
H643        H  0.04048493  0.43728071  0.64559982     0.15190
H644        H  0.10518658  0.42363502  0.56721384     0.15190
C645        C  0.13685159  0.39617949  0.60680003     0.36840
C646        C  0.00730400  0.46018580  0.60801462     0.36750
N647        N  0.16278636  0.38210435  0.60662565    -0.43500
N648        N  0.48074166  0.47205046  0.61036379    -0.43500
C649        C  0.06296225  0.09696239  0.58315591     0.00090
C650        C  0.09462289  0.11388049  0.58452115    -0.11780
C651        C  0.10983484  0.12030031  0.60787493     0.02330
C652        C  0.09389793  0.10791278  0.62993468     0.00010
C653        C  0.06270483  0.09119293  0.62839645    -0.11720
C654        C  0.04650576  0.08761816  0.60593864     0.02210
H655        H  0.10746693  0.12188232  0.56752036     0.15190
H656        H  0.05004735  0.08229483  0.64536123     0.15190
C657        C  0.01244431  0.07514560  0.60773437     0.36840
C658        C  0.14085293  0.14068695  0.60888148     0.36750
N659        N  0.98529728  0.06518258  0.60978658    -0.43500
N660        N  0.16555478  0.15744772  0.60969738    -0.43500
C661        C  0.13284996  0.13868441  0.86556313     0.00090
C662        C  0.14858273  0.17440459  0.86311404    -0.11780
C663        C  0.16537436  0.19123321  0.88304213     0.02330
C664        C  0.16577279  0.17280608  0.90674181     0.00010
C665        C  0.14882512  0.13738438  0.90933786    -0.11720
C666        C  0.13298887  0.11994684  0.88885251     0.02210
H667        H  0.14898584  0.18847732  0.84503468     0.15190
H668        H  0.14899276  0.12251904  0.92711021     0.15190
C669        C  0.11766650  0.08259096  0.89192236     0.36840
C670        C  0.18301473  0.22658365  0.87777536     0.36750
N671        N  0.10543698  0.05257847  0.89432131    -0.43500
N672        N  0.19748635  0.25444134  0.87294938    -0.43500
C673        C  0.32296794  0.33519033  0.90694333     0.00090
C674        C  0.35644183  0.34589941  0.90885061    -0.11780
C675        C  0.37360285  0.36182692  0.88837726     0.02330
C676        C  0.35723239  0.36723881  0.86544025     0.00010
C677        C  0.32393566  0.35615773  0.86365455    -0.11720
C678        C  0.30667470  0.34118086  0.88398406     0.02210
H679        H  0.36934173  0.34151073  0.92628523     0.15190
H680        H  0.31098923  0.35952173  0.84612536     0.15190
C681        C  0.27180000  0.33395814  0.88071356     0.36840
C682        C  0.40760421  0.37311600  0.89157769     0.36750
N683        N  0.24388018  0.32855811  0.87783950    -0.43500
N684        N  0.43490954  0.38206175  0.89414974    -0.43500
C685        C  0.13418487  0.36723546  0.86816037     0.00090
C686        C  0.15364049  0.39141589  0.88346500    -0.11780
C687        C  0.17036190  0.37676820  0.90427731     0.02330
C688        C  0.16710936  0.33749416  0.91055453     0.00010
C689        C  0.14604739  0.31400830  0.89664924    -0.11720
C690        C  0.13002346  0.32807847  0.87549698     0.02210
H691        H  0.15689463  0.42159427  0.87860193     0.15190
H692        H  0.14297909  0.28394237  0.90193019     0.15190
C693        C  0.11144792  0.30033922  0.86126084     0.36840
C694        C  0.19227485  0.40185470  0.91798652     0.36750
N695        N  0.09659373  0.27709087  0.85061283    -0.43500
N696        N  0.21002852  0.42178737  0.92893906    -0.43500
C697        C  0.35636673  0.13789913  0.86405875     0.00090
C698        C  0.32173528  0.14203313  0.86416663    -0.11780
C699        C  0.30468327  0.15574259  0.88502070     0.02330
C700        C  0.32218307  0.16805515  0.90623480     0.00010
C701        C  0.35675798  0.16397177  0.90649207    -0.11720
C702        C  0.37392017  0.14886808  0.88571787     0.02210
H703        H  0.30755127  0.13444267  0.84776919     0.15190
H704        H  0.37043482  0.17305011  0.92282945     0.15190
C705        C  0.40926046  0.14436891  0.88738931     0.36840
C706        C  0.26903365  0.15472940  0.88451964     0.36750
N707        N  0.43762762  0.14097680  0.88873825    -0.43500
N708        N  0.24051799  0.15309673  0.88401943    -0.43500
O709        O  0.42827212  0.69212926  0.79697292    -0.75050
O710        O  0.45658215  0.64329936  0.77759150    -0.53950
C711        C  0.43339340  0.65627362  0.79220189     0.78680
O712        O  0.43597580  0.82022883  0.70061385    -0.59650
O713        O  0.46064774  0.86777222  0.72372949    -0.52680
C714        C  0.44048664  0.85581249  0.70662809     0.70700
O715        O  0.43172962  0.69319681  0.70357411    -0.74200
O716        O  0.45840945  0.64427321  0.72394799    -0.54770
C717        C  0.43644318  0.65742899  0.70866816     0.76700
O718        O  0.43119994  0.81786725  0.79991727    -0.59350
O719        O  0.45771403  0.86669500  0.77931494    -0.52470
C720        C  0.43580961  0.85366563  0.79492559     0.73290
Zr721      Zr  0.45009162  0.75500552  0.78731546     2.54710
O722        O  0.39002092  0.75663558  0.78666770    -0.79910
O723        O  0.45358943  0.75345032  0.83265082    -0.93330
Zr724      Zr  0.45275282  0.75626900  0.71402687     2.64680
O725        O  0.39264307  0.75748092  0.71230480    -0.98290
O726        O  0.46064950  0.75446436  0.66895359    -0.80350
O727        O  0.45094801  0.71772217  0.75042041    -0.83700
O728        O  0.45059915  0.79371772  0.75097063    -2.18410
O729        O  0.06367516  0.81822538  0.80145536    -0.67090
O730        O  0.03948694  0.86694177  0.77926332    -0.51660
C731        C  0.06030431  0.85400113  0.79554537     0.71670
O732        O  0.07179156  0.69333556  0.70879651    -0.60000
O733        O  0.04017490  0.64444106  0.72484432    -0.51980
C734        C  0.06495483  0.65761113  0.71207241     0.73480
O735        O  0.06764004  0.81819448  0.70464319    -0.71400
O736        O  0.03914271  0.86640378  0.72470456    -0.50070
C737        C  0.06166101  0.85378896  0.70946505     0.74860
O738        O  0.06628950  0.69060393  0.79849563    -0.66730
O739        O  0.03948227  0.64228110  0.77760008    -0.53920
C740        C  0.06185074  0.65480101  0.79287258     0.73240
Zr741      Zr  0.04495609  0.75442298  0.78938415     2.77540
O742        O  0.10516172  0.75270139  0.79096771    -0.97480
O743        O  0.03388704  0.75105978  0.83397737    -0.78300
Zr744      Zr  0.04749645  0.75543137  0.71625166     2.70070
O745        O  0.10733764  0.75828664  0.71224648    -0.79540
O746        O  0.03944510  0.75107387  0.67135673    -0.98630
Zr747      Zr  0.99853672  0.67689443  0.75146860     2.21500
Zr748      Zr  0.49892221  0.83355825  0.75221036     2.11130
O749        O  0.04695177  0.79299163  0.75304253    -2.47320
O750        O  0.04634286  0.71712252  0.75255749    -0.79340
O751        O  0.49760329  0.79459983  0.78919366    -0.71530
O752        O  0.00003931  0.71574589  0.71426664    -2.32490
O753        O  0.99734434  0.71486017  0.78894867    -2.28700
O754        O  0.50040499  0.79565651  0.71470474    -0.73290
H755        H  0.43088901  0.80944411  0.75069231     0.78700
H756        H  0.00075452  0.69959401  0.69953613     0.79790
H757        H  0.06684590  0.80835905  0.75331354     0.82020
H758        H  0.99673160  0.69844841  0.80349281     0.79620
H759        H  0.46448934  0.72688364  0.66483886     0.42660
H760        H  0.03391387  0.77776052  0.66617978     0.41630
H761        H  0.11549158  0.75691321  0.72958743     0.41310
H762        H  0.11238894  0.76483447  0.77516718     0.39240
H763        H  0.02369140  0.77631014  0.83817054     0.42370
H764        H  0.45943166  0.72641587  0.83677904     0.37160
H765        H  0.38422010  0.74912318  0.76940365     0.43270
H766        H  0.38596556  0.78020865  0.72242220     0.39690
H767        H  0.11187600  0.77135756  0.80398114     0.44610
H768        H  0.43045213  0.75631264  0.83843613     0.43330
H769        H  0.38747842  0.76477202  0.69491009     0.43470
H770        H  0.06185615  0.74650212  0.66448236     0.43820
C771        C  0.37231337  0.62194406  0.84092012     0.03380
C772        C  0.39981637  0.63960051  0.82960451    -0.12770
C773        C  0.40977457  0.62987366  0.80498572     0.00880
C774        C  0.39069302  0.60298933  0.79140193    -0.11300
C775        C  0.36246032  0.58616669  0.80250304     0.03370
C776        C  0.35552995  0.59330742  0.82761845    -0.10720
H777        H  0.41190326  0.66334491  0.83908606     0.08960
H778        H  0.39571875  0.59835471  0.77177196     0.06490
H779        H  0.33449310  0.57905011  0.83616251     0.06340
O780        O  0.30517766  0.58182368  0.69880803    -0.75050
O781        O  0.34340044  0.54722770  0.72054987    -0.53950
C782        C  0.33510477  0.57395010  0.70527664     0.78680
O783        O  0.19190792  0.57470245  0.79537291    -0.59650
O784        O  0.15303140  0.54353180  0.77220362    -0.52680
C785        C  0.16160587  0.56735309  0.78940062     0.70700
O786        O  0.30621403  0.57434734  0.79374688    -0.74200
O787        O  0.34536157  0.54245074  0.77087486    -0.54770
C788        C  0.33654970  0.56641956  0.78790110     0.76700
O789        O  0.19281453  0.57802230  0.69598593    -0.59350
O790        O  0.15511118  0.54559637  0.71989155    -0.52470
C791        C  0.16303714  0.57043452  0.70314162     0.73290
Zr792      Zr  0.24899604  0.55890591  0.70801706     2.54710
O793        O  0.24704547  0.62919882  0.70641989    -0.79910
O794        O  0.25090780  0.55369069  0.66271409    -0.93330
Zr795      Zr  0.24888001  0.55824811  0.78258584     2.64680
O796        O  0.24933400  0.62865977  0.78242708    -0.98290
O797        O  0.24937023  0.55864583  0.82799904    -0.80350
O798        O  0.28052119  0.55949176  0.74523905    -0.83700
O799        O  0.21736320  0.55971822  0.74552182    -2.18410
O800        O  0.19207752  0.92737515  0.69429025    -0.67090
O801        O  0.15489057  0.95938848  0.71909036    -0.51660
C802        C  0.16238722  0.93544534  0.70168445     0.71670
O803        O  0.30608951  0.92832252  0.79397639    -0.60000
O804        O  0.34506420  0.96111893  0.77168792    -0.51980
C805        C  0.33632250  0.93726058  0.78872365     0.73480
O806        O  0.19307908  0.92672326  0.79458949    -0.71400
O807        O  0.15382680  0.95880502  0.77244328    -0.50070
C808        C  0.16276090  0.93458107  0.78925856     0.74860
O809        O  0.30557020  0.92285657  0.69620155    -0.66730
O810        O  0.34300124  0.95634148  0.71954053    -0.53920
C811        C  0.33534883  0.93072809  0.70322137     0.73240
Zr812      Zr  0.24900286  0.94430798  0.70693867     2.77540
O813        O  0.24748842  0.87391675  0.70556727    -0.97480
O814        O  0.25106741  0.94930081  0.66167546    -0.78300
Zr815      Zr  0.24932635  0.94321807  0.78136038     2.70070
O816        O  0.24965387  0.87297932  0.77802819    -0.79540
O817        O  0.25042551  0.93863527  0.82667761    -0.98630
Zr818      Zr  0.31207325  0.00134275  0.74481692     2.21500
Zr819      Zr  0.18593296  0.00144902  0.74571294     2.11130
O820        O  0.21736134  0.94299363  0.74446257    -2.47320
O821        O  0.28099587  0.94287707  0.74405317    -0.79340
O822        O  0.21658627  0.50169653  0.70754270    -0.71530
O823        O  0.28079448  0.00085665  0.78260789    -2.32490
O824        O  0.28155421  0.00166476  0.70679609    -2.28700
O825        O  0.21710840  0.00061709  0.78322891    -0.73290
H826        H  0.20316108  0.58217100  0.74577552     0.78700
H827        H  0.29492999  0.00080181  0.79705495     0.79790
H828        H  0.20306081  0.92064311  0.74445597     0.82020
H829        H  0.29622691  0.50190446  0.69252909     0.79620
H830        H  0.26315355  0.53612687  0.83258680     0.42660
H831        H  0.23267542  0.95624270  0.83249906     0.41630
H832        H  0.26140194  0.86755381  0.76215675     0.41310
H833        H  0.22827383  0.86669260  0.71605043     0.39240
H834        H  0.23466067  0.96954696  0.65762883     0.42370
H835        H  0.27382079  0.54569546  0.65872589     0.37160
H836        H  0.24933967  0.63746369  0.72402246     0.43270
H837        H  0.22880472  0.63609237  0.77371106     0.39690
H838        H  0.24065462  0.86762196  0.68832128     0.44610
H839        H  0.24947164  0.58074560  0.65681535     0.43330
H840        H  0.24534806  0.63603476  0.80004921     0.43470
H841        H  0.24209296  0.91234955  0.83041563     0.43820
C842        C  0.12262963  0.88229252  0.84342730     0.03380
C843        C  0.09186891  0.87223706  0.83322491    -0.12770
C844        C  0.08436472  0.88002392  0.80804299     0.00880
C845        C  0.10656759  0.90257576  0.79383028    -0.11300
C846        C  0.13693020  0.91455333  0.80418394     0.03370
C847        C  0.14459299  0.90387955  0.82872921    -0.10720
H848        H  0.07455472  0.85549434  0.84420361     0.08960
H849        H  0.10179263  0.90747093  0.77422589     0.06490
H850        H  0.16864732  0.91119073  0.83612499     0.06340
C851        C  0.37294689  0.88481749  0.84285691     0.03380
C852        C  0.40224863  0.87006059  0.83240447    -0.12770
C853        C  0.41205513  0.87974310  0.80777938     0.00880
C854        C  0.39188045  0.90471799  0.79373744    -0.11300
C855        C  0.36219718  0.91904456  0.80407450     0.03370
C856        C  0.35434445  0.91097928  0.82893004    -0.10720
H857        H  0.41566449  0.84790773  0.84240562     0.08960
H858        H  0.39722176  0.90927578  0.77414050     0.06490
H859        H  0.33161819  0.92241748  0.83682517     0.06340
C860        C  0.12017063  0.62060209  0.84245088     0.03380
C861        C  0.09208829  0.63579051  0.83091255    -0.12770
C862        C  0.08506983  0.62788388  0.80566135     0.00880
C863        C  0.10651619  0.60292525  0.79221768    -0.11300
C864        C  0.13523422  0.58775619  0.80374000     0.03370
C865        C  0.14120843  0.59627469  0.82892463    -0.10720
H866        H  0.07733633  0.65689922  0.84101746     0.08960
H867        H  0.10273007  0.59851452  0.77244226     0.06490
H868        H  0.16377568  0.58629556  0.83761724     0.06340
C869        C  0.10566410  0.61509495  0.65560843     0.03380
C870        C  0.08399192  0.63495607  0.67152931    -0.12770
C871        C  0.08614595  0.63167958  0.69735869     0.00880
C872        C  0.11219220  0.61053235  0.70768613    -0.11300
C873        C  0.13575888  0.59250729  0.69197211     0.03370
C874        C  0.13225896  0.59458963  0.66585211    -0.10720
H875        H  0.06385940  0.65154192  0.66358338     0.08960
H876        H  0.11498781  0.60951110  0.72775107     0.06490
H877        H  0.14874828  0.57835055  0.65375730     0.06340
C878        C  0.09813679  0.90580201  0.65436145     0.03380
C879        C  0.07649414  0.88473128  0.66974258    -0.12770
C880        C  0.08231239  0.88085800  0.69524242     0.00880
C881        C  0.11124442  0.89635205  0.70536373    -0.11300
C882        C  0.13417254  0.91581298  0.69001914     0.03370
C883        C  0.12747994  0.92065698  0.66451186    -0.10720
H884        H  0.05437021  0.87203056  0.66186269     0.08960
H885        H  0.11632067  0.89253854  0.72504033     0.06490
H886        H  0.14377457  0.93820886  0.65313790     0.06340
C887        C  0.38903029  0.61621254  0.65501183     0.03380
C888        C  0.36218829  0.59936029  0.66741609    -0.12770
C889        C  0.36202798  0.59595441  0.69338107     0.00880
C890        C  0.38836136  0.61162008  0.70728114    -0.11300
C891        C  0.41431296  0.63109298  0.69504275     0.03370
C892        C  0.41455118  0.63287021  0.66886749    -0.10720
H893        H  0.34261403  0.58607896  0.65663347     0.08960
H894        H  0.38766736  0.61057402  0.72745226     0.06490
H895        H  0.43485962  0.64696379  0.65927003     0.06340
C896        C  0.39486160  0.90091650  0.65238000     0.03380
C897        C  0.36490972  0.90882592  0.66494974    -0.12770
C898        C  0.36344361  0.91080188  0.69101145     0.00880
C899        C  0.39042285  0.89770786  0.70510311    -0.11300
C900        C  0.41879223  0.88331359  0.69316731     0.03370
C901        C  0.42149633  0.88687807  0.66704070    -0.10720
H902        H  0.34258209  0.91471913  0.65487531     0.08960
H903        H  0.38843867  0.89647202  0.72525463     0.06490
H904        H  0.44452869  0.87805049  0.65850627     0.06340
O905        O  0.31467204  0.82542924  0.95081507    -0.75050
O906        O  0.28258803  0.79265757  0.92309482    -0.53950
C907        C  0.30569982  0.81667177  0.92841579     0.78680
O908        O  0.31304664  0.67447539  0.03391018    -0.59650
O909        O  0.28285379  0.70836150  0.06269909    -0.52680
C910        C  0.30509396  0.68368590  0.05641353     0.70700
O911        O  0.31377326  0.67748044  0.94979163    -0.74200
O912        O  0.28157241  0.71053755  0.92233477    -0.54770
C913        C  0.30477418  0.68649882  0.92755389     0.76700
O914        O  0.31178717  0.82820830  0.03632455    -0.59350
O915        O  0.28204082  0.79170823  0.06371381    -0.52470
C916        C  0.30322208  0.81808212  0.05864383     0.73290
Zr917      Zr  0.29667260  0.80887187  0.99340852     2.54710
O918        O  0.35668413  0.80588911  0.99449507    -0.79910
O919        O  0.29642535  0.87927927  0.99275227    -0.93330
Zr920      Zr  0.29513285  0.69285357  0.99214170     2.64680
O921        O  0.35524121  0.69034107  0.99140845    -0.98290
O922        O  0.29095246  0.62258169  0.99145012    -0.80350
O923        O  0.29590996  0.75128981  0.96907725    -0.83700
O924        O  0.29704131  0.75041079  0.01640013    -2.18410
O925        O  0.18144314  0.82836190  0.03703286    -0.67090
O926        O  0.21248684  0.79360789  0.06444038    -0.51660
C927        C  0.19034176  0.81895083  0.05921626     0.71670
O928        O  0.17647174  0.67940156  0.95074148    -0.60000
O929        O  0.20849379  0.71220126  0.92297633    -0.51980
C930        C  0.18469220  0.68912532  0.92826926     0.73480
O931        O  0.17778155  0.67729033  0.03617187    -0.71400
O932        O  0.21128355  0.70958571  0.06303390    -0.50070
C933        C  0.18719435  0.68673988  0.05837430     0.74860
O934        O  0.17977849  0.82976969  0.95319761    -0.66730
O935        O  0.20773408  0.79375042  0.92421720    -0.53920
C936        C  0.18631840  0.81945819  0.93065599     0.73240
Zr937      Zr  0.19763177  0.80999937  0.99454669     2.77540
O938        O  0.13749125  0.80924942  0.99479590    -0.97480
O939        O  0.20012275  0.88032139  0.99509468    -0.78300
Zr940      Zr  0.19611283  0.69360836  0.99337722     2.70070
O941        O  0.13609231  0.69034198  0.99424792    -0.79540
O942        O  0.20104869  0.62344288  0.99232465    -0.98630
Zr943      Zr  0.24558139  0.75215850  0.94662623     2.21500
Zr944      Zr  0.24698069  0.75070095  0.03963939     2.11130
O945        O  0.19641653  0.75152352  0.01746804    -2.47320
O946        O  0.19595585  0.75232461  0.97036149    -0.79340
O947        O  0.24741432  0.81004807  0.01768005    -0.71530
O948        O  0.24528199  0.69272144  0.96885310    -2.32490
O949        O  0.24678059  0.81069151  0.97008104    -2.28700
O950        O  0.24600054  0.69188222  0.01665252    -0.73290
H951        H  0.31603924  0.75012474  0.02721502     0.78700
H952        H  0.24493569  0.67095915  0.95751229     0.79790
H953        H  0.17768202  0.75190241  0.02868265     0.82020
H954        H  0.24679373  0.83290315  0.95919389     0.79620
H955        H  0.27744037  0.61658301  0.97660160     0.42660
H956        H  0.21127270  0.61666572  0.00846839     0.41630
H957        H  0.12887064  0.71722318  0.99102138     0.41310
H958        H  0.13134399  0.79267275  0.00910948     0.39240
H959        H  0.22145778  0.88632556  0.00316140     0.42370
H960        H  0.28329667  0.88618202  0.97788895     0.37160
H961        H  0.36218032  0.78047851  0.98697904     0.43270
H962        H  0.36226208  0.70720816  0.00536349     0.39690
H963        H  0.13105989  0.83570280  0.00003044     0.44610
H964        H  0.31937272  0.88643689  0.98828918     0.43330
H965        H  0.36076886  0.66380773  0.99690145     0.43470
H966        H  0.17803503  0.61402185  0.99375457     0.43820
C967        C  0.13260173  0.87622832  0.15142489     0.03380
C968        C  0.14286793  0.91086858  0.16305912    -0.12770
C969        C  0.13513388  0.91892819  0.18825251     0.00880
C970        C  0.11317635  0.89466659  0.20097938    -0.11300
C971        C  0.10199349  0.86069729  0.18947559     0.03370
C972        C  0.11294688  0.85073938  0.16550707    -0.10720
H973        H  0.15883806  0.93080409  0.15322384     0.08960
H974        H  0.10655267  0.90070880  0.22021736     0.06490
H975        H  0.10616457  0.82268920  0.15820764     0.06340
C976        C  0.35831572  0.63457139  0.14989767     0.03380
C977        C  0.37480165  0.66544636  0.16196506    -0.12770
C978        C  0.38028621  0.66519459  0.18774618     0.00880
C979        C  0.36714331  0.63534111  0.20231738    -0.11300
C980        C  0.35068491  0.60453771  0.19084631     0.03370
C981        C  0.34896452  0.60283568  0.16476061    -0.10720
H982        H  0.38325796  0.69045316  0.15171667     0.08960
H983        H  0.36946638  0.63624807  0.22241947     0.06490
H984        H  0.33892057  0.57692731  0.15670637     0.06340
C985        C  0.35501022  0.88259877  0.15008113     0.03380
C986        C  0.37681799  0.85811148  0.16251583    -0.12770
C987        C  0.38418845  0.86447318  0.18765853     0.00880
C988        C  0.37053058  0.89620952  0.20048710    -0.11300
C989        C  0.34883757  0.92126743  0.18817316     0.03370
C990        C  0.34182531  0.91465847  0.16276369    -0.10720
H991        H  0.38690286  0.83301645  0.15296074     0.08960
H992        H  0.37538604  0.90008447  0.22020251     0.06490
H993        H  0.32370926  0.93253333  0.15341967     0.06340
O994        O  0.18807027  0.93941191  0.19688189    -0.75050
O995        O  0.14660869  0.96780408  0.21942275    -0.53950
C996        C  0.15756113  0.94446772  0.20235463     0.78680
O997        O  0.29470814  0.93111818  0.29502917    -0.59650
O998        O  0.33527994  0.96599949  0.27545513    -0.52680
C999        C  0.32495782  0.93870231  0.28996970     0.70700
O1000       O  0.18625882  0.92958931  0.29282907    -0.74200
O1001       O  0.14610277  0.96533595  0.27370906    -0.54770
C1002       C  0.15612229  0.93753042  0.28780399     0.76700
O1003       O  0.29568163  0.94097349  0.19673407    -0.59350
O1004       O  0.33633195  0.96873195  0.22011186    -0.52470
C1005       C  0.32595431  0.94596947  0.20259295     0.73290
Zr1006     Zr  0.24173196  0.95925861  0.21059163     2.54710
O1007       O  0.24208471  0.88891933  0.21231522    -0.79910
O1008       O  0.24282477  0.96261067  0.16520178    -0.93330
Zr1009     Zr  0.24063001  0.95425615  0.28380970     2.64680
O1010       O  0.23990594  0.88377678  0.28392729    -0.98290
O1011       O  0.23951140  0.95943488  0.32913241    -0.80350
O1012       O  0.20884314  0.95590527  0.24689480    -0.83700
O1013       O  0.27357677  0.95597731  0.24722214    -2.18410
O1014       O  0.29668138  0.58794614  0.20003002    -0.67090
O1015       O  0.33738099  0.55700832  0.22167189    -0.51660
C1016       C  0.32708898  0.58120028  0.20518866     0.71670
O1017       O  0.18701962  0.59123247  0.29660205    -0.60000
O1018       O  0.14687723  0.56095596  0.27393480    -0.51980
C1019       C  0.15712802  0.58648402  0.28978382     0.73480
O1020       O  0.29287278  0.59294081  0.29699884    -0.71400
O1021       O  0.33403203  0.56318166  0.27469963    -0.50070
C1022       C  0.32297800  0.58907694  0.29019317     0.74860
O1023       O  0.18717216  0.59056100  0.20081318    -0.66730
O1024       O  0.14599911  0.55687615  0.22032464    -0.53920
C1025       C  0.15673918  0.58245645  0.20480523     0.73240
Zr1026     Zr  0.24147812  0.57152629  0.21394729     2.77540
O1027       O  0.24218946  0.64125637  0.22063237    -0.97480
O1028       O  0.23850170  0.57940599  0.16904389    -0.78300
Zr1029     Zr  0.24037494  0.56527042  0.28720529     2.70070
O1030       O  0.23974787  0.63390639  0.29742520    -0.79540
O1031       O  0.23994376  0.54800996  0.33119226    -0.98630
Zr1032     Zr  0.17537848  0.51256370  0.24793030     2.21500
Zr1033     Zr  0.30686026  0.51302631  0.24888201     2.11130
O1034       O  0.27294349  0.56960394  0.25052526    -2.47320
O1035       O  0.20857429  0.56943036  0.25036768    -0.79340
O1036       O  0.27476061  0.51547017  0.21155153    -0.71530
O1037       O  0.20649168  0.50981350  0.28584272    -2.32490
O1038       O  0.20871336  0.51525118  0.21109486    -2.28700
O1039       O  0.27462468  0.50993290  0.28646622    -0.73290
H1040       H  0.28716456  0.93303475  0.24644643     0.78700
H1041       H  0.19210408  0.50901875  0.30026491     0.79790
H1042       H  0.28600462  0.59292678  0.25055619     0.82020
H1043       H  0.19526736  0.51593719  0.19628154     0.79620
H1044       H  0.21584698  0.96187789  0.33360091     0.42660
H1045       H  0.26347519  0.54833187  0.33611116     0.41630
H1046       H  0.24042807  0.64702637  0.28103826     0.41310
H1047       H  0.26523389  0.64746240  0.22522787     0.39240
H1048       H  0.22654002  0.55622265  0.16306847     0.42370
H1049       H  0.22434434  0.98000263  0.16078761     0.37160
H1050       H  0.22788954  0.88250360  0.22681167     0.43270
H1051       H  0.25825330  0.87591431  0.27272927     0.39690
H1052       H  0.23955129  0.65232502  0.20374788     0.44610
H1053       H  0.23558470  0.93670040  0.15954106     0.43330
H1054       H  0.24728564  0.87640800  0.30083975     0.43470
H1055       H  0.23018245  0.57079403  0.33970277     0.43820
O1056       O  0.04691203  0.84668780  0.19759699    -0.75050
O1057       O  0.08630538  0.80686164  0.21394004    -0.53950
C1058       C  0.07696507  0.83660951  0.20143713     0.78680
O1059       O  0.43638426  0.83637640  0.29052485    -0.59650
O1060       O  0.39532694  0.80797274  0.26797718    -0.52680
C1061       C  0.40598289  0.83115327  0.28500342     0.70700
O1062       O  0.04481230  0.83602008  0.29098958    -0.74200
O1063       O  0.08530568  0.80647965  0.26800564    -0.54770
C1064       C  0.07508199  0.83011710  0.28513784     0.76700
O1065       O  0.43825473  0.84641567  0.19458179    -0.59350
O1066       O  0.39745005  0.81178469  0.21402769    -0.52470
C1067       C  0.40797934  0.83915417  0.19972281     0.73290
Zr1068     Zr  0.99195535  0.82080322  0.20433174     2.54710
O1069       O  0.99162544  0.89058564  0.19852519    -0.79910
O1070       O  0.49437019  0.81042708  0.15942626    -0.93330
Zr1071     Zr  0.99080420  0.81677776  0.27793814     2.64680
O1072       O  0.99243783  0.88722146  0.27969798    -0.98290
O1073       O  0.48842093  0.80747252  0.32291777    -0.80350
O1074       O  0.02339605  0.81950733  0.24131369    -0.83700
O1075       O  0.45936239  0.82049983  0.24120364    -2.18410
O1076       O  0.43422803  0.68661689  0.19155967    -0.67090
O1077       O  0.39463208  0.71785258  0.21451721    -0.51660
C1078       C  0.40424747  0.69222416  0.19851536     0.71670
O1079       O  0.04516252  0.68428993  0.28673836    -0.60000
O1080       O  0.08584211  0.71820804  0.26675795    -0.51980
C1081       C  0.07551684  0.69247263  0.28219612     0.73480
O1082       O  0.43556241  0.68738314  0.28878307    -0.71400
O1083       O  0.39536804  0.72041403  0.26790648    -0.50070
C1084       C  0.40536624  0.69546631  0.28403063     0.74860
O1085       O  0.04243399  0.68118502  0.19283028    -0.66730
O1086       O  0.08306815  0.71246481  0.21447091    -0.53920
C1087       C  0.07248404  0.68620614  0.19930835     0.73240
Zr1088     Zr  0.48929308  0.70897897  0.20159126     2.77540
O1089       O  0.48924656  0.63930018  0.19445203    -0.97480
O1090       O  0.49078991  0.72185073  0.15698440    -0.78300
Zr1091     Zr  0.49024968  0.70459491  0.27518285     2.70070
O1092       O  0.48883276  0.63438319  0.27196563    -0.79540
O1093       O  0.99216482  0.70410709  0.32059037    -0.98630
Zr1094     Zr  0.05561732  0.76195379  0.23995974     2.21500
Zr1095     Zr  0.42536133  0.76405323  0.24009837     2.11130
O1096       O  0.45772465  0.70620908  0.23874877    -2.47320
O1097       O  0.02178846  0.70566296  0.23818231    -0.79340
O1098       O  0.45689507  0.76586938  0.20222324    -0.71530
O1099       O  0.02348847  0.76039823  0.27732006    -2.32490
O1100       O  0.02432136  0.76399257  0.20216750    -2.28700
O1101       O  0.45738828  0.76109243  0.27728273    -0.73290
H1102       H  0.44614983  0.84373350  0.24196398     0.78700
H1103       H  0.03733018  0.75956712  0.29192169     0.79790
H1104       H  0.44395736  0.68341850  0.23872167     0.82020
H1105       H  0.03863203  0.76426702  0.18769110     0.79620
H1106       H  0.00948389  0.79463170  0.32721603     0.42660
H1107       H  0.47346288  0.72066653  0.32596520     0.41630
H1108       H  0.99840006  0.62869130  0.25532093     0.41310
H1109       H  0.47261133  0.62885257  0.20623475     0.39240
H1110       H  0.46763965  0.72795862  0.15262692     0.42370
H1111       H  0.01537463  0.82260660  0.15415030     0.37160
H1112       H  0.98962590  0.90128668  0.21561559     0.43270
H1113       H  0.48121336  0.89572729  0.26430185     0.39690
H1114       H  0.47944647  0.63569757  0.17772278     0.44610
H1115       H  0.97701256  0.82751629  0.15261307     0.43330
H1116       H  0.97711376  0.89463599  0.29334322     0.43470
H1117       H  0.48548584  0.67756440  0.32532185     0.43820
C1118       C  0.12455155  0.63785000  0.15032922     0.03380
C1119       C  0.10171073  0.66231676  0.16204918    -0.12770
C1120       C  0.09595353  0.65958882  0.18771927     0.00880
C1121       C  0.11145359  0.63062555  0.20165505    -0.11300
C1122       C  0.13359040  0.60516795  0.18991456     0.03370
C1123       C  0.13988713  0.60880354  0.16418739    -0.10720
H1124       H  0.09035227  0.68549053  0.15152705     0.08960
H1125       H  0.10745749  0.62907008  0.22161606     0.06490
H1126       H  0.15911765  0.59147628  0.15548688     0.06340
C1127       C  0.11128064  0.64511537  0.33800902     0.03380
C1128       C  0.13097714  0.61639261  0.32697899    -0.12770
C1129       C  0.13402735  0.61412738  0.30088742     0.00880
C1130       C  0.11816680  0.64139598  0.28583928    -0.11300
C1131       C  0.09929761  0.67076888  0.29687723     0.03370
C1132       C  0.09660969  0.67305750  0.32285633    -0.10720
H1133       H  0.14205490  0.59424737  0.33851894     0.08960
H1134       H  0.11991123  0.63925732  0.26571669     0.06490
H1135       H  0.07970213  0.69384396  0.33117472     0.06340
C1136       C  0.36898143  0.64516729  0.33913421     0.03380
C1137       C  0.34711014  0.61949674  0.32741224    -0.12770
C1138       C  0.34523297  0.61759426  0.30141092     0.00880
C1139       C  0.36182666  0.64522438  0.28696490    -0.11300
C1140       C  0.38142921  0.67339878  0.29865593     0.03370
C1141       C  0.38511890  0.67301325  0.32471998    -0.10720
H1142       H  0.33446151  0.59778033  0.33847103     0.08960
H1143       H  0.36035335  0.64405248  0.26682093     0.06490
H1144       H  0.40348635  0.69145728  0.33335644     0.06340
C1145       C  0.10436911  0.89163569  0.33793939     0.03380
C1146       C  0.09266532  0.85896410  0.32505837    -0.12770
C1147       C  0.09829789  0.85434521  0.29927746     0.00880
C1148       C  0.11860692  0.88080199  0.28678343    -0.11300
C1149       C  0.13194962  0.91235078  0.29978843     0.03370
C1150       C  0.12483167  0.91770874  0.32517728    -0.10720
H1151       H  0.07673613  0.83857953  0.33461179     0.08960
H1152       H  0.12290431  0.87783691  0.26689357     0.06490
H1153       H  0.13455939  0.94287202  0.33474998     0.06340
C1154       C  0.37772950  0.89101853  0.33859354     0.03380
C1155       C  0.35649831  0.91727032  0.32693246    -0.12770
C1156       C  0.34884524  0.91275977  0.30159397     0.00880
C1157       C  0.36205859  0.88154367  0.28795747    -0.11300
C1158       C  0.38313823  0.85512721  0.29966760     0.03370
C1159       C  0.38993178  0.85945607  0.32514339    -0.10720
H1160       H  0.34735145  0.94220206  0.33716173     0.08960
H1161       H  0.35727461  0.87901058  0.26814348     0.06490
H1162       H  0.40790223  0.84062564  0.33388883     0.06340
O1163       O  0.05713635  0.94882374  0.53836368    -0.75050
O1164       O  0.02322625  0.98467265  0.56300442    -0.53950
C1165       C  0.04582897  0.95944690  0.55996384     0.78680
O1166       O  0.05745750  0.60346578  0.45112885    -0.59650
O1167       O  0.03091726  0.56442480  0.42341812    -0.52680
C1168       C  0.05028514  0.59246867  0.42871243     0.70700
O1169       O  0.05887542  0.59710457  0.53757213    -0.74200
O1170       O  0.02514068  0.56003450  0.56127211    -0.54770
C1171       C  0.04821771  0.58467713  0.55890449     0.76700
O1172       O  0.06179829  0.94456847  0.45295653    -0.59350
O1173       O  0.03184516  0.97825263  0.42427743    -0.52470
C1174       C  0.05343871  0.95269891  0.43044743     0.73290
Zr1175     Zr  0.04411032  0.96585866  0.49445214     2.54710
O1176       O  0.10399480  0.97138668  0.49564214    -0.79910
O1177       O  0.04661027  0.89552081  0.49518106    -0.93330
Zr1178     Zr  0.04221091  0.58269008  0.49386064     2.64680
O1179       O  0.10234896  0.58355316  0.49308225    -0.98290
O1180       O  0.04005064  0.65301109  0.49623540    -0.80350
O1181       O  0.04186768  0.52436827  0.51728347    -0.83700
O1182       O  0.04475805  0.52393878  0.47046078    -2.18410
O1183       O  0.43315449  0.94188286  0.44782650    -0.67090
O1184       O  0.46385353  0.47830895  0.42123956    -0.51660
C1185       C  0.44298556  0.95128860  0.42577890     0.71670
O1186       O  0.42030655  0.59480381  0.53333257    -0.60000
O1187       O  0.45270214  0.56132321  0.56027902    -0.51980
C1188       C  0.42864973  0.58388352  0.55540598     0.73480
O1189       O  0.42690098  0.59976820  0.44919938    -0.71400
O1190       O  0.45793882  0.56310405  0.42257813    -0.50070
C1191       C  0.43527045  0.58840805  0.42720809     0.74860
O1192       O  0.42721390  0.94207678  0.53229355    -0.66730
O1193       O  0.45437180  0.97980542  0.56040529    -0.53920
C1194       C  0.43434739  0.95254575  0.55470026     0.73240
Zr1195     Zr  0.44400141  0.96348541  0.49049443     2.77540
O1196       O  0.38400158  0.96687283  0.48861343    -0.97480
O1197       O  0.44270539  0.89314725  0.49004077    -0.78300
Zr1198     Zr  0.44256725  0.58092038  0.49129579     2.70070
O1199       O  0.38276019  0.58518961  0.48815387    -0.79540
O1200       O  0.44787463  0.65099536  0.49358424    -0.98630
Zr1201     Zr  0.48946324  0.52229248  0.53672010     2.21500
Zr1202     Zr  0.49544814  0.52247524  0.44638820     2.11130
O1203       O  0.44387592  0.52220390  0.46756621    -2.47320
O1204       O  0.44006671  0.52185435  0.51384081    -0.79340
O1205       O  0.49566048  0.96401220  0.46927261    -0.71530
O1206       O  0.49091049  0.58262380  0.51600174    -2.32490
O1207       O  0.49238237  0.96284819  0.51526934    -2.28700
O1208       O  0.49360749  0.58184155  0.46888185    -0.73290
H1209       H  0.06400296  0.52411955  0.45973855     0.78700
H1210       H  0.48994430  0.60390360  0.52770571     0.79790
H1211       H  0.42577481  0.52171121  0.45591511     0.82020
H1212       H  0.49209072  0.94111170  0.52653665     0.79620
H1213       H  0.01973942  0.65881037  0.50589762     0.42660
H1214       H  0.46105341  0.65799067  0.47865909     0.41630
H1215       H  0.37500816  0.55838055  0.49091478     0.41310
H1216       H  0.37924177  0.98114228  0.47305967     0.39240
H1217       H  0.46617340  0.88545433  0.48839189     0.42370
H1218       H  0.03094467  0.88783808  0.50850997     0.37160
H1219       H  0.10808704  0.49706631  0.50324101     0.43270
H1220       H  0.10859761  0.56831298  0.47811944     0.39690
H1221       H  0.37700680  0.93999082  0.48505185     0.44610
H1222       H  0.06868745  0.88956215  0.50203021     0.43330
H1223       H  0.10814216  0.61054904  0.48877546     0.43470
H1224       H  0.42542571  0.66083831  0.49003393     0.43820
C1225       C  0.42835179  0.93065853  0.40401890     0.00090
C1226       C  0.39632025  0.91498638  0.40636442    -0.11780
C1227       C  0.37914155  0.90143609  0.38540810     0.02330
C1228       C  0.39456538  0.90193398  0.36187135     0.00010
C1229       C  0.42705658  0.91511273  0.35967077    -0.11720
C1230       C  0.44381260  0.93017094  0.38012543     0.02210
H1231       H  0.38384379  0.91542640  0.42430674     0.15190
H1232       H  0.43862725  0.91606408  0.34135974     0.15190
C1233       C  0.47411560  0.95061212  0.37469571     0.36840
C1234       C  0.34563052  0.88798215  0.38832258     0.36750
N1235       N  0.49731084  0.96859722  0.36969131    -0.43500
N1236       N  0.31872581  0.87727035  0.39064592    -0.43500
C1237       C  0.06851032  0.93048129  0.40973316     0.00090
C1238       C  0.04711203  0.91252160  0.39299175    -0.11780
C1239       C  0.05816102  0.89959899  0.36971916     0.02330
C1240       C  0.09219395  0.90120243  0.36360545     0.00010
C1241       C  0.11426830  0.91568358  0.38163739    -0.11720
C1242       C  0.10263404  0.93068017  0.40448913     0.02210
H1243       H  0.02109762  0.91080691  0.39762234     0.15190
H1244       H  0.14047054  0.91679556  0.37744654     0.15190
C1245       C  0.12580360  0.94779268  0.42163081     0.36840
C1246       C  0.03331312  0.88965023  0.35161820     0.36750
N1247       N  0.14434945  0.96143317  0.43544495    -0.43500
N1248       N  0.01310122  0.88260906  0.33714888    -0.43500
C1249       C  0.38363124  0.63310486  0.36312199     0.00090
C1250       C  0.39542735  0.59532025  0.36374624    -0.11780
C1251       C  0.41061863  0.58063771  0.38461867     0.02330
C1252       C  0.41682365  0.60417592  0.40553760     0.00010
C1253       C  0.40483953  0.64255745  0.40528522    -0.11720
C1254       C  0.38812675  0.65713715  0.38419322     0.02210
H1255       H  0.39252173  0.57657934  0.34759710     0.15190
H1256       H  0.40865386  0.66109335  0.42135555     0.15190
C1257       C  0.37514960  0.69598681  0.38477436     0.36840
C1258       C  0.41707601  0.54014732  0.38395191     0.36750
N1259       N  0.36450873  0.72705783  0.38528825    -0.43500
N1260       N  0.42036466  0.50730804  0.38179667    -0.43500
C1261       C  0.06497289  0.61247140  0.40683405     0.00090
C1262       C  0.09773793  0.62619018  0.40745765    -0.11780
C1263       C  0.11358609  0.63869269  0.38542555     0.02330
C1264       C  0.09630606  0.63788772  0.36268172     0.00010
C1265       C  0.06323977  0.62678703  0.36249440    -0.11720
C1266       C  0.04752281  0.61424167  0.38398389     0.02210
H1267       H  0.11139848  0.62542343  0.42478394     0.15190
H1268       H  0.04984087  0.62635119  0.34498705     0.15190
C1269       C  0.01369048  0.60210922  0.38113037     0.36840
C1270       C  0.14724134  0.65217634  0.38646942     0.36750
N1271       N  0.48686999  0.59225692  0.37754069    -0.43500
N1272       N  0.17415331  0.66332319  0.38731159    -0.43500
C1273       C  0.17385511  0.83816266  0.08050401     0.00090
C1274       C  0.14167127  0.82745118  0.08705028    -0.11780
C1275       C  0.12678604  0.84158145  0.10897259     0.02330
C1276       C  0.14516263  0.86498724  0.12584677     0.00010
C1277       C  0.17699421  0.87701753  0.11822994    -0.11720
C1278       C  0.19064018  0.86511929  0.09540730     0.02210
H1279       H  0.12815960  0.80782485  0.07501878     0.15190
H1280       H  0.19183259  0.89535984  0.13010227     0.15190
C1281       C  0.22086231  0.88282856  0.08680606     0.36840
C1282       C  0.09237644  0.83241948  0.11289902     0.36750
N1283       N  0.24443152  0.89800884  0.07947204    -0.43500
N1284       N  0.06481399  0.82479811  0.11587053    -0.43500
C1285       C  0.31730275  0.83818469  0.08068893     0.00090
C1286       C  0.29670529  0.84250722  0.10170212    -0.11780
C1287       C  0.30817842  0.85875301  0.12381405     0.02330
C1288       C  0.34142853  0.87032731  0.12568749     0.00010
C1289       C  0.36238302  0.86594404  0.10485475    -0.11720
C1290       C  0.35053201  0.85028320  0.08234031     0.02210
H1291       H  0.27138663  0.83239376  0.10106149     0.15190
H1292       H  0.38818199  0.87393892  0.10639242     0.15190
C1293       C  0.37345987  0.84427145  0.06201382     0.36840
C1294       C  0.28565576  0.86093334  0.14476458     0.36750
N1295       N  0.39192225  0.83923785  0.04577740    -0.43500
N1296       N  0.26745895  0.86252676  0.16144268    -0.43500
C1297       C  0.13906554  0.64977289  0.12624289     0.00090
C1298       C  0.13459572  0.62768119  0.10447399    -0.11780
C1299       C  0.14935244  0.63897395  0.08175770     0.02330
C1300       C  0.16909993  0.67275004  0.08089113     0.00010
C1301       C  0.17289532  0.69464253  0.10291902    -0.11720
C1302       C  0.15861112  0.68332337  0.12531102     0.02210
H1303       H  0.11974660  0.60162288  0.10527402     0.15190
H1304       H  0.18747182  0.72095582  0.10290624     0.15190
C1305       C  0.16543598  0.70605480  0.14739833     0.36840
C1306       C  0.14448787  0.61496153  0.06003589     0.36750
N1307       N  0.17092600  0.72406885  0.16512512    -0.43500
N1308       N  0.14047669  0.59563866  0.04264990    -0.43500
C1309       C  0.32261405  0.66481606  0.07687628     0.00090
C1310       C  0.30626681  0.63606276  0.09018267    -0.11780
C1311       C  0.31883915  0.62218751  0.11267631     0.02330
C1312       C  0.34844608  0.63827003  0.12278962     0.00010
C1313       C  0.36664600  0.66368946  0.10730315    -0.11720
C1314       C  0.35360380  0.67775083  0.08494970     0.02210
H1315       H  0.28280854  0.62530300  0.08331623     0.15190
H1316       H  0.39057871  0.67427158  0.11305692     0.15190
C1317       C  0.37119537  0.70761979  0.07160047     0.36840
C1318       C  0.30015473  0.59136011  0.12392355     0.36750
N1319       N  0.38505623  0.73180573  0.06097108    -0.43500
N1320       N  0.28525995  0.56553154  0.13176794    -0.43500
C1321       C  0.41899823  0.93226615  0.57589739     0.00090
C1322       C  0.39166619  0.94920670  0.58741600    -0.11780
C1323       C  0.38154339  0.93815077  0.61138773     0.02330
C1324       C  0.39918945  0.90873368  0.62462405     0.00010
C1325       C  0.42432846  0.88891924  0.61128066    -0.11720
C1326       C  0.43480463  0.90106599  0.58756385     0.02210
H1327       H  0.37928730  0.97298026  0.57815102     0.15190
H1328       H  0.43700304  0.86465387  0.61957862     0.15190
C1329       C  0.46337803  0.88296151  0.57626693     0.36840
C1330       C  0.35404482  0.95978920  0.62148422     0.36750
N1331       N  0.98641353  0.86879774  0.56720264    -0.43500
N1332       N  0.33181681  0.97751952  0.62897485    -0.43500
C1333       C  0.40933378  0.59493116  0.57763517     0.00090
C1334       C  0.40203582  0.56443090  0.59397576    -0.11780
C1335       C  0.39565465  0.57126054  0.61905677     0.02330
C1336       C  0.39329765  0.60950062  0.62795991     0.00010
C1337       C  0.39810598  0.64046314  0.61134370    -0.11720
C1338       C  0.40663275  0.63339081  0.58623983     0.02210
H1339       H  0.40531525  0.53480078  0.58772856     0.15190
H1340       H  0.39695856  0.66992575  0.61828609     0.15190
C1341       C  0.41540496  0.66552709  0.57043860     0.36840
C1342       C  0.39689048  0.53885228  0.63601652     0.36750
N1343       N  0.42257076  0.69131050  0.55780820    -0.43500
N1344       N  0.39872917  0.51372626  0.65015151    -0.43500
C1345       C  0.08626358  0.91774276  0.62937977     0.00090
C1346       C  0.05462524  0.93371016  0.62847556    -0.11780
C1347       C  0.04068349  0.94547011  0.60619976     0.02330
C1348       C  0.05899847  0.94267177  0.58350607     0.00010
C1349       C  0.09079807  0.92615512  0.58424994    -0.11720
C1350       C  0.10451222  0.91367200  0.60698705     0.02210
H1351       H  0.04048492  0.93728069  0.64559982     0.15190
H1352       H  0.10518659  0.92363506  0.56721385     0.15190
C1353       C  0.13685160  0.89617954  0.60680003     0.36840
C1354       C  0.00730398  0.96018578  0.60801462     0.36750
N1355       N  0.16278637  0.88210442  0.60662566    -0.43500
N1356       N  0.48074166  0.97205050  0.61036379    -0.43500
C1357       C  0.06296225  0.59696240  0.58315591     0.00090
C1358       C  0.09462290  0.61388046  0.58452116    -0.11780
C1359       C  0.10983485  0.62030027  0.60787494     0.02330
C1360       C  0.09389791  0.60791278  0.62993468     0.00010
C1361       C  0.06270479  0.59119299  0.62839645    -0.11720
C1362       C  0.04650573  0.58761822  0.60593864     0.02210
H1363       H  0.10746696  0.62188225  0.56752036     0.15190
H1364       H  0.05004729  0.58229492  0.64536122     0.15190
C1365       C  0.01244428  0.57514570  0.60773436     0.36840
C1366       C  0.14085296  0.64068686  0.60888149     0.36750
N1367       N  0.98529723  0.56518270  0.60978656    -0.43500
N1368       N  0.16555483  0.65744760  0.60969739    -0.43500
C1369       C  0.13284996  0.63868440  0.86556313     0.00090
C1370       C  0.14858273  0.67440458  0.86311404    -0.11780
C1371       C  0.16537435  0.69123320  0.88304213     0.02330
C1372       C  0.16577277  0.67280608  0.90674181     0.00010
C1373       C  0.14882510  0.63738438  0.90933786    -0.11720
C1374       C  0.13298885  0.61994685  0.88885251     0.02210
H1375       H  0.14898585  0.68847730  0.84503468     0.15190
H1376       H  0.14899273  0.62251905  0.92711022     0.15190
C1377       C  0.11766647  0.58259097  0.89192236     0.36840
C1378       C  0.18301474  0.72658364  0.87777536     0.36750
N1379       N  0.10543694  0.55257848  0.89432131    -0.43500
N1380       N  0.19748636  0.75444133  0.87294938    -0.43500
C1381       C  0.32296793  0.83519032  0.90694334     0.00090
C1382       C  0.35644182  0.84589942  0.90885062    -0.11780
C1383       C  0.37360284  0.86182692  0.88837727     0.02330
C1384       C  0.35723238  0.86723880  0.86544026     0.00010
C1385       C  0.32393566  0.85615771  0.86365456    -0.11720
C1386       C  0.30667469  0.84118084  0.88398407     0.02210
H1387       H  0.36934172  0.84151075  0.92628525     0.15190
H1388       H  0.31098923  0.85952170  0.84612537     0.15190
C1389       C  0.27179999  0.83395812  0.88071356     0.36840
C1390       C  0.40760419  0.87311601  0.89157771     0.36750
N1391       N  0.24388018  0.82855807  0.87783950    -0.43500
N1392       N  0.43490952  0.88206177  0.89414976    -0.43500
C1393       C  0.13418487  0.86723545  0.86816037     0.00090
C1394       C  0.15364048  0.89141589  0.88346500    -0.11780
C1395       C  0.17036189  0.87676820  0.90427731     0.02330
C1396       C  0.16710936  0.83749416  0.91055453     0.00010
C1397       C  0.14604739  0.81400829  0.89664923    -0.11720
C1398       C  0.13002346  0.82807847  0.87549697     0.02210
H1399       H  0.15689462  0.92159427  0.87860193     0.15190
H1400       H  0.14297909  0.78394236  0.90193018     0.15190
C1401       C  0.11144792  0.80033921  0.86126082     0.36840
C1402       C  0.19227483  0.90185470  0.91798652     0.36750
N1403       N  0.09659375  0.77709087  0.85061280    -0.43500
N1404       N  0.21002850  0.92178737  0.92893906    -0.43500
C1405       C  0.35636672  0.63789914  0.86405876     0.00090
C1406       C  0.32173526  0.64203313  0.86416664    -0.11780
C1407       C  0.30468325  0.65574258  0.88502071     0.02330
C1408       C  0.32218306  0.66805515  0.90623481     0.00010
C1409       C  0.35675796  0.66397177  0.90649208    -0.11720
C1410       C  0.37392015  0.64886809  0.88571788     0.02210
H1411       H  0.30755125  0.63444267  0.84776920     0.15190
H1412       H  0.37043481  0.67305012  0.92282946     0.15190
C1413       C  0.40926045  0.64436892  0.88738931     0.36840
C1414       C  0.26903364  0.65472939  0.88451965     0.36750
N1415       N  0.43762761  0.64097682  0.88873825    -0.43500
N1416       N  0.24051798  0.65309671  0.88401944    -0.43500
O1417       O  0.92827212  0.19212926  0.79697292    -0.75050
O1418       O  0.95658215  0.14329936  0.77759150    -0.53950
C1419       C  0.93339340  0.15627362  0.79220188     0.78680
O1420       O  0.93597581  0.32022884  0.70061385    -0.59650
O1421       O  0.96064774  0.36777223  0.72372949    -0.52680
C1422       C  0.94048665  0.35581249  0.70662809     0.70700
O1423       O  0.93172962  0.19319681  0.70357411    -0.74200
O1424       O  0.95840945  0.14427321  0.72394799    -0.54770
C1425       C  0.93644318  0.15742899  0.70866816     0.76700
O1426       O  0.93119994  0.31786725  0.79991726    -0.59350
O1427       O  0.95771403  0.36669500  0.77931493    -0.52470
C1428       C  0.93580961  0.35366563  0.79492558     0.73290
Zr1429     Zr  0.95009162  0.25500551  0.78731545     2.54710
O1430       O  0.89002092  0.25663558  0.78666769    -0.79910
O1431       O  0.95358943  0.25345032  0.83265082    -0.93330
Zr1432     Zr  0.95275282  0.25626901  0.71402687     2.64680
O1433       O  0.89264308  0.25748092  0.71230479    -0.98290
O1434       O  0.96064952  0.25446436  0.66895358    -0.80350
O1435       O  0.95094801  0.21772217  0.75042040    -0.83700
O1436       O  0.95059916  0.29371772  0.75097063    -2.18410
O1437       O  0.56367516  0.31822538  0.80145536    -0.67090
O1438       O  0.53948694  0.36694176  0.77926332    -0.51660
C1439       C  0.56030431  0.35400113  0.79554537     0.71670
O1440       O  0.57179156  0.19333556  0.70879651    -0.60000
O1441       O  0.54017490  0.14444105  0.72484432    -0.51980
C1442       C  0.56495484  0.15761113  0.71207240     0.73480
O1443       O  0.56764005  0.31819448  0.70464319    -0.71400
O1444       O  0.53914271  0.36640378  0.72470456    -0.50070
C1445       C  0.56166101  0.35378896  0.70946504     0.74860
O1446       O  0.56628950  0.19060393  0.79849563    -0.66730
O1447       O  0.53948227  0.14228110  0.77760008    -0.53920
C1448       C  0.56185074  0.15480101  0.79287258     0.73240
Zr1449     Zr  0.54495609  0.25442298  0.78938415     2.77540
O1450       O  0.60516172  0.25270140  0.79096771    -0.97480
O1451       O  0.53388704  0.25105977  0.83397737    -0.78300
Zr1452     Zr  0.54749645  0.25543137  0.71625166     2.70070
O1453       O  0.60733765  0.25828663  0.71224650    -0.79540
O1454       O  0.53944511  0.25107387  0.67135673    -0.98630
Zr1455     Zr  0.49853673  0.17689443  0.75146860     2.21500
Zr1456     Zr  0.99892221  0.33355825  0.75221035     2.11130
O1457       O  0.54695177  0.29299162  0.75304253    -2.47320
O1458       O  0.54634287  0.21712252  0.75255749    -0.79340
O1459       O  0.99760329  0.29459983  0.78919366    -0.71530
O1460       O  0.50003932  0.21574589  0.71426664    -2.32490
O1461       O  0.49734434  0.21486017  0.78894866    -2.28700
O1462       O  0.00040500  0.29565651  0.71470474    -0.73290
H1463       H  0.93088901  0.30944411  0.75069231     0.78700
H1464       H  0.50075453  0.19959401  0.69953612     0.79790
H1465       H  0.56684590  0.30835905  0.75331354     0.82020
H1466       H  0.49673160  0.19844840  0.80349280     0.79620
H1467       H  0.96448934  0.22688363  0.66483886     0.42660
H1468       H  0.53391388  0.27776051  0.66617978     0.41630
H1469       H  0.61549158  0.25691321  0.72958744     0.41310
H1470       H  0.61238894  0.26483453  0.77516719     0.39240
H1471       H  0.52369139  0.27631013  0.83817053     0.42370
H1472       H  0.95943165  0.22641587  0.83677904     0.37160
H1473       H  0.88422011  0.24912319  0.76940364     0.43270
H1474       H  0.88596556  0.28020865  0.72242219     0.39690
H1475       H  0.61187600  0.27135752  0.80398116     0.44610
H1476       H  0.93045212  0.25631265  0.83843612     0.43330
H1477       H  0.88747843  0.26477202  0.69491008     0.43470
H1478       H  0.56185617  0.24650212  0.66448237     0.43820
C1479       C  0.87231338  0.12194405  0.84092012     0.03380
C1480       C  0.89981637  0.13960051  0.82960451    -0.12770
C1481       C  0.90977457  0.12987366  0.80498571     0.00880
C1482       C  0.89069303  0.10298933  0.79140193    -0.11300
C1483       C  0.86246033  0.08616669  0.80250304     0.03370
C1484       C  0.85552996  0.09330741  0.82761845    -0.10720
H1485       H  0.91190326  0.16334491  0.83908605     0.08960
H1486       H  0.89571875  0.09835471  0.77177195     0.06490
H1487       H  0.83449310  0.07905011  0.83616250     0.06340
O1488       O  0.80517767  0.08182368  0.69880803    -0.75050
O1489       O  0.84340045  0.04722770  0.72054987    -0.53950
C1490       C  0.83510477  0.07395010  0.70527664     0.78680
O1491       O  0.69190792  0.07470246  0.79537291    -0.59650
O1492       O  0.65303140  0.04353180  0.77220362    -0.52680
C1493       C  0.66160588  0.06735309  0.78940062     0.70700
O1494       O  0.80621403  0.07434734  0.79374687    -0.74200
O1495       O  0.84536157  0.04245074  0.77087486    -0.54770
C1496       C  0.83654970  0.06641956  0.78790109     0.76700
O1497       O  0.69281453  0.07802229  0.69598592    -0.59350
O1498       O  0.65511118  0.04559637  0.71989154    -0.52470
C1499       C  0.66303714  0.07043452  0.70314162     0.73290
Zr1500     Zr  0.74899604  0.05890591  0.70801706     2.54710
O1501       O  0.74704547  0.12919882  0.70641989    -0.79910
O1502       O  0.75090780  0.05369068  0.66271409    -0.93330
Zr1503     Zr  0.74888001  0.05824811  0.78258584     2.64680
O1504       O  0.74933400  0.12865978  0.78242707    -0.98290
O1505       O  0.74937024  0.05864584  0.82799903    -0.80350
O1506       O  0.78052119  0.05949176  0.74523904    -0.83700
O1507       O  0.71736320  0.05971822  0.74552181    -2.18410
O1508       O  0.69207752  0.42737515  0.69429025    -0.67090
O1509       O  0.65489058  0.45938847  0.71909036    -0.51660
C1510       C  0.66238722  0.43544534  0.70168445     0.71670
O1511       O  0.80608951  0.42832252  0.79397638    -0.60000
O1512       O  0.84506421  0.46111894  0.77168792    -0.51980
C1513       C  0.83632251  0.43726059  0.78872365     0.73480
O1514       O  0.69307908  0.42672326  0.79458948    -0.71400
O1515       O  0.65382680  0.45880501  0.77244327    -0.50070
C1516       C  0.66276090  0.43458107  0.78925856     0.74860
O1517       O  0.80557021  0.42285658  0.69620155    -0.66730
O1518       O  0.84300124  0.45634149  0.71954053    -0.53920
C1519       C  0.83534883  0.43072810  0.70322137     0.73240
Zr1520     Zr  0.74900286  0.44430798  0.70693867     2.77540
O1521       O  0.74748842  0.37391676  0.70556726    -0.97480
O1522       O  0.75106741  0.44930081  0.66167546    -0.78300
Zr1523     Zr  0.74932635  0.44321807  0.78136037     2.70070
O1524       O  0.74965387  0.37297932  0.77802818    -0.79540
O1525       O  0.75042551  0.43863525  0.82667761    -0.98630
Zr1526     Zr  0.81207325  0.50134275  0.74481692     2.21500
Zr1527     Zr  0.68593296  0.50144902  0.74571294     2.11130
O1528       O  0.71736135  0.44299363  0.74446257    -2.47320
O1529       O  0.78099587  0.44287707  0.74405316    -0.79340
O1530       O  0.71658627  0.00169653  0.70754270    -0.71530
O1531       O  0.78079448  0.50085665  0.78260789    -2.32490
O1532       O  0.78155422  0.50166477  0.70679609    -2.28700
O1533       O  0.71710841  0.50061708  0.78322891    -0.73290
H1534       H  0.70316108  0.08217100  0.74577551     0.78700
H1535       H  0.79492999  0.50080181  0.79705495     0.79790
H1536       H  0.70306082  0.42064311  0.74445596     0.82020
H1537       H  0.79622691  0.00190446  0.69252909     0.79620
H1538       H  0.76315351  0.03612685  0.83258680     0.42660
H1539       H  0.73267543  0.45624268  0.83249906     0.41630
H1540       H  0.76140195  0.36755381  0.76215674     0.41310
H1541       H  0.72827383  0.36669260  0.71605042     0.39240
H1542       H  0.73466067  0.46954697  0.65762883     0.42370
H1543       H  0.77382079  0.04569546  0.65872589     0.37160
H1544       H  0.74933967  0.13746369  0.72402245     0.43270
H1545       H  0.72880472  0.13609237  0.77371105     0.39690
H1546       H  0.74065462  0.36762196  0.68832127     0.44610
H1547       H  0.74947165  0.08074559  0.65681534     0.43330
H1548       H  0.74534808  0.13603477  0.80004920     0.43470
H1549       H  0.74209297  0.41234953  0.83041562     0.43820
C1550       C  0.62262964  0.38229252  0.84342730     0.03380
C1551       C  0.59186892  0.37223706  0.83322491    -0.12770
C1552       C  0.58436472  0.38002392  0.80804299     0.00880
C1553       C  0.60656759  0.40257575  0.79383028    -0.11300
C1554       C  0.63693020  0.41455333  0.80418394     0.03370
C1555       C  0.64459300  0.40387955  0.82872921    -0.10720
H1556       H  0.57455472  0.35549434  0.84420361     0.08960
H1557       H  0.60179263  0.40747093  0.77422589     0.06490
H1558       H  0.66864733  0.41119073  0.83612499     0.06340
C1559       C  0.87294690  0.38481749  0.84285691     0.03380
C1560       C  0.90224863  0.37006060  0.83240447    -0.12770
C1561       C  0.91205513  0.37974311  0.80777937     0.00880
C1562       C  0.89188045  0.40471799  0.79373744    -0.11300
C1563       C  0.86219718  0.41904456  0.80407450     0.03370
C1564       C  0.85434445  0.41097929  0.82893003    -0.10720
H1565       H  0.91566449  0.34790773  0.84240561     0.08960
H1566       H  0.89722176  0.40927578  0.77414049     0.06490
H1567       H  0.83161819  0.42241749  0.83682516     0.06340
C1568       C  0.62017064  0.12060209  0.84245088     0.03380
C1569       C  0.59208829  0.13579051  0.83091255    -0.12770
C1570       C  0.58506983  0.12788388  0.80566135     0.00880
C1571       C  0.60651619  0.10292525  0.79221768    -0.11300
C1572       C  0.63523422  0.08775619  0.80374000     0.03370
C1573       C  0.64120844  0.09627469  0.82892463    -0.10720
H1574       H  0.57733633  0.15689922  0.84101746     0.08960
H1575       H  0.60273007  0.09851452  0.77244226     0.06490
H1576       H  0.66377569  0.08629557  0.83761723     0.06340
C1577       C  0.60566410  0.11509495  0.65560843     0.03380
C1578       C  0.58399192  0.13495606  0.67152931    -0.12770
C1579       C  0.58614595  0.13167958  0.69735868     0.00880
C1580       C  0.61219220  0.11053234  0.70768613    -0.11300
C1581       C  0.63575888  0.09250729  0.69197211     0.03370
C1582       C  0.63225896  0.09458963  0.66585211    -0.10720
H1583       H  0.56385939  0.15154192  0.66358338     0.08960
H1584       H  0.61498782  0.10951110  0.72775107     0.06490
H1585       H  0.64874828  0.07835055  0.65375730     0.06340
C1586       C  0.59813679  0.40580200  0.65436145     0.03380
C1587       C  0.57649415  0.38473128  0.66974258    -0.12770
C1588       C  0.58231239  0.38085800  0.69524242     0.00880
C1589       C  0.61124442  0.39635205  0.70536373    -0.11300
C1590       C  0.63417254  0.41581297  0.69001914     0.03370
C1591       C  0.62747995  0.42065698  0.66451186    -0.10720
H1592       H  0.55437021  0.37203055  0.66186269     0.08960
H1593       H  0.61632067  0.39253854  0.72504033     0.06490
H1594       H  0.64377457  0.43820885  0.65313790     0.06340
C1595       C  0.88903029  0.11621254  0.65501183     0.03380
C1596       C  0.86218829  0.09936029  0.66741609    -0.12770
C1597       C  0.86202799  0.09595440  0.69338106     0.00880
C1598       C  0.88836136  0.11162008  0.70728114    -0.11300
C1599       C  0.91431295  0.13109298  0.69504275     0.03370
C1600       C  0.91455118  0.13287021  0.66886749    -0.10720
H1601       H  0.84261403  0.08607896  0.65663347     0.08960
H1602       H  0.88766736  0.11057402  0.72745226     0.06490
H1603       H  0.93485962  0.14696379  0.65927003     0.06340
C1604       C  0.89486160  0.40091650  0.65238000     0.03380
C1605       C  0.86490973  0.40882592  0.66494973    -0.12770
C1606       C  0.86344361  0.41080189  0.69101145     0.00880
C1607       C  0.89042285  0.39770787  0.70510311    -0.11300
C1608       C  0.91879223  0.38331360  0.69316731     0.03370
C1609       C  0.92149633  0.38687808  0.66704070    -0.10720
H1610       H  0.84258209  0.41471914  0.65487531     0.08960
H1611       H  0.88843867  0.39647202  0.72525463     0.06490
H1612       H  0.94452869  0.37805049  0.65850626     0.06340
O1613       O  0.81467205  0.32542924  0.95081506    -0.75050
O1614       O  0.78258803  0.29265757  0.92309481    -0.53950
C1615       C  0.80569982  0.31667177  0.92841579     0.78680
O1616       O  0.81304666  0.17447539  0.03391017    -0.59650
O1617       O  0.78285381  0.20836150  0.06269908    -0.52680
C1618       C  0.80509398  0.18368590  0.05641353     0.70700
O1619       O  0.81377328  0.17748044  0.94979163    -0.74200
O1620       O  0.78157241  0.21053755  0.92233476    -0.54770
C1621       C  0.80477419  0.18649883  0.92755389     0.76700
O1622       O  0.81178717  0.32820833  0.03632453    -0.59350
O1623       O  0.78204082  0.29170826  0.06371380    -0.52470
C1624       C  0.80322207  0.31808216  0.05864382     0.73290
Zr1625     Zr  0.79667262  0.30887188  0.99340851     2.54710
O1626       O  0.85668414  0.30588910  0.99449506    -0.79910
O1627       O  0.79642537  0.37927927  0.99275225    -0.93330
Zr1628     Zr  0.79513286  0.19285357  0.99214170     2.64680
O1629       O  0.85524123  0.19034107  0.99140844    -0.98290
O1630       O  0.79095247  0.12258169  0.99145011    -0.80350
O1631       O  0.79590997  0.25128981  0.96907724    -0.83700
O1632       O  0.79704133  0.25041079  0.01640013    -2.18410
O1633       O  0.68144315  0.32836189  0.03703286    -0.67090
O1634       O  0.71248685  0.29360786  0.06444038    -0.51660
C1635       C  0.69034177  0.31895080  0.05921626     0.71670
O1636       O  0.67647175  0.17940156  0.95074148    -0.60000
O1637       O  0.70849380  0.21220127  0.92297633    -0.51980
C1638       C  0.68469221  0.18912532  0.92826925     0.73480
O1639       O  0.67778156  0.17729034  0.03617187    -0.71400
O1640       O  0.71128357  0.20958571  0.06303390    -0.50070
C1641       C  0.68719437  0.18673988  0.05837430     0.74860
O1642       O  0.67977850  0.32976969  0.95319761    -0.66730
O1643       O  0.70773409  0.29375043  0.92421720    -0.53920
C1644       C  0.68631841  0.31945819  0.93065599     0.73240
Zr1645     Zr  0.69763179  0.30999937  0.99454669     2.77540
O1646       O  0.63749127  0.30924942  0.99479590    -0.97480
O1647       O  0.70012276  0.38032139  0.99509468    -0.78300
Zr1648     Zr  0.69611285  0.19360835  0.99337722     2.70070
O1649       O  0.63609232  0.19034197  0.99424792    -0.79540
O1650       O  0.70104871  0.12344288  0.99232465    -0.98630
Zr1651     Zr  0.74558140  0.25215850  0.94662623     2.21500
Zr1652     Zr  0.74698071  0.25070095  0.03963938     2.11130
O1653       O  0.69641655  0.25152352  0.01746804    -2.47320
O1654       O  0.69595586  0.25232461  0.97036149    -0.79340
O1655       O  0.74741433  0.31004807  0.01768004    -0.71530
O1656       O  0.74528200  0.19272144  0.96885310    -2.32490
O1657       O  0.74678060  0.31069152  0.97008103    -2.28700
O1658       O  0.74600055  0.19188221  0.01665252    -0.73290
H1659       H  0.81603926  0.25012475  0.02721502     0.78700
H1660       H  0.74493571  0.17095915  0.95751228     0.79790
H1661       H  0.67768203  0.25190240  0.02868265     0.82020
H1662       H  0.74679374  0.33290316  0.95919388     0.79620
H1663       H  0.77744043  0.11658301  0.97660156     0.42660
H1664       H  0.71127272  0.11666572  0.00846839     0.41630
H1665       H  0.62887065  0.21722317  0.99102139     0.41310
H1666       H  0.63134400  0.29267275  0.00910948     0.39240
H1667       H  0.72145780  0.38632555  0.00316139     0.42370
H1668       H  0.78329668  0.38618202  0.97788893     0.37160
H1669       H  0.86218033  0.28047851  0.98697902     0.43270
H1670       H  0.86226210  0.20720817  0.00536348     0.39690
H1671       H  0.63105991  0.33570280  0.00003045     0.44610
H1672       H  0.81937274  0.38643689  0.98828915     0.43330
H1673       H  0.86076888  0.16380773  0.99690144     0.43470
H1674       H  0.67803506  0.11402185  0.99375457     0.43820
C1675       C  0.63260175  0.37622828  0.15142491     0.03380
C1676       C  0.64286793  0.41086856  0.16305912    -0.12770
C1677       C  0.63513387  0.41892819  0.18825251     0.00880
C1678       C  0.61317633  0.39466662  0.20097938    -0.11300
C1679       C  0.60199349  0.36069729  0.18947560     0.03370
C1680       C  0.61294691  0.35073935  0.16550710    -0.10720
H1681       H  0.65883805  0.43080407  0.15322384     0.08960
H1682       H  0.60655265  0.40070885  0.22021735     0.06490
H1683       H  0.60616463  0.32268914  0.15820769     0.06340
C1684       C  0.85831572  0.13457139  0.14989766     0.03380
C1685       C  0.87480164  0.16544636  0.16196506    -0.12770
C1686       C  0.88028620  0.16519458  0.18774618     0.00880
C1687       C  0.86714330  0.13534111  0.20231738    -0.11300
C1688       C  0.85068490  0.10453770  0.19084631     0.03370
C1689       C  0.84896452  0.10283567  0.16476061    -0.10720
H1690       H  0.88325796  0.19045315  0.15171666     0.08960
H1691       H  0.86946637  0.13624807  0.22241947     0.06490
H1692       H  0.83892056  0.07692731  0.15670637     0.06340
C1693       C  0.85501020  0.38259877  0.15008113     0.03380
C1694       C  0.87681797  0.35811147  0.16251583    -0.12770
C1695       C  0.88418843  0.36447317  0.18765853     0.00880
C1696       C  0.87053057  0.39620952  0.20048710    -0.11300
C1697       C  0.84883757  0.42126743  0.18817316     0.03370
C1698       C  0.84182531  0.41465848  0.16276369    -0.10720
H1699       H  0.88690283  0.33301644  0.15296073     0.08960
H1700       H  0.87538604  0.40008446  0.22020251     0.06490
H1701       H  0.82370926  0.43253335  0.15341967     0.06340
O1702       O  0.68807027  0.43941192  0.19688189    -0.75050
O1703       O  0.64660868  0.46780408  0.21942275    -0.53950
C1704       C  0.65756113  0.44446772  0.20235463     0.78680
O1705       O  0.79470814  0.43111818  0.29502917    -0.59650
O1706       O  0.83527994  0.46599949  0.27545514    -0.52680
C1707       C  0.82495782  0.43870231  0.28996970     0.70700
O1708       O  0.68625882  0.42958930  0.29282907    -0.74200
O1709       O  0.64610277  0.46533594  0.27370906    -0.54770
C1710       C  0.65612229  0.43753041  0.28780399     0.76700
O1711       O  0.79568163  0.44097349  0.19673407    -0.59350
O1712       O  0.83633195  0.46873194  0.22011186    -0.52470
C1713       C  0.82595431  0.44596947  0.20259295     0.73290
Zr1714     Zr  0.74173196  0.45925861  0.21059164     2.54710
O1715       O  0.74208470  0.38891933  0.21231522    -0.79910
O1716       O  0.74282478  0.46261068  0.16520178    -0.93330
Zr1717     Zr  0.74063001  0.45425615  0.28380970     2.64680
O1718       O  0.73990595  0.38377678  0.28392729    -0.98290
O1719       O  0.73951141  0.45943487  0.32913241    -0.80350
O1720       O  0.70884314  0.45590526  0.24689481    -0.83700
O1721       O  0.77357677  0.45597731  0.24722214    -2.18410
O1722       O  0.79668138  0.08794614  0.20003002    -0.67090
O1723       O  0.83738099  0.05700832  0.22167189    -0.51660
C1724       C  0.82708898  0.08120028  0.20518866     0.71670
O1725       O  0.68701962  0.09123247  0.29660205    -0.60000
O1726       O  0.64687723  0.06095596  0.27393480    -0.51980
C1727       C  0.65712802  0.08648402  0.28978382     0.73480
O1728       O  0.79287278  0.09294081  0.29699884    -0.71400
O1729       O  0.83403202  0.06318165  0.27469963    -0.50070
C1730       C  0.82297799  0.08907694  0.29019318     0.74860
O1731       O  0.68717216  0.09056101  0.20081319    -0.66730
O1732       O  0.64599911  0.05687615  0.22032464    -0.53920
C1733       C  0.65673918  0.08245645  0.20480523     0.73240
Zr1734     Zr  0.74147812  0.07152630  0.21394730     2.77540
O1735       O  0.74218947  0.14125637  0.22063240    -0.97480
O1736       O  0.73850168  0.07940602  0.16904390    -0.78300
Zr1737     Zr  0.74037493  0.06527041  0.28720530     2.70070
O1738       O  0.73974787  0.13390636  0.29742525    -0.79540
O1739       O  0.73994375  0.04800992  0.33119227    -0.98630
Zr1740     Zr  0.67537848  0.01256370  0.24793030     2.21500
Zr1741     Zr  0.80686026  0.01302631  0.24888201     2.11130
O1742       O  0.77294349  0.06960394  0.25052527    -2.47320
O1743       O  0.70857429  0.06943036  0.25036769    -0.79340
O1744       O  0.77476061  0.01547018  0.21155153    -0.71530
O1745       O  0.70649168  0.00981349  0.28584273    -2.32490
O1746       O  0.70871336  0.01525118  0.21109487    -2.28700
O1747       O  0.77462468  0.00993289  0.28646622    -0.73290
H1748       H  0.78716456  0.43303475  0.24644643     0.78700
H1749       H  0.69210408  0.00901874  0.30026491     0.79790
H1750       H  0.78600462  0.09292678  0.25055620     0.82020
H1751       H  0.69526736  0.01593719  0.19628154     0.79620
H1752       H  0.71584698  0.46187790  0.33360091     0.42660
H1753       H  0.76347517  0.04833191  0.33611118     0.41630
H1754       H  0.74042807  0.14702637  0.28103832     0.41310
H1755       H  0.76523391  0.14746241  0.22522787     0.39240
H1756       H  0.72654003  0.05622267  0.16306848     0.42370
H1757       H  0.72434439  0.48000270  0.16078761     0.37160
H1758       H  0.72788954  0.38250360  0.22681167     0.43270
H1759       H  0.75825331  0.37591431  0.27272927     0.39690
H1760       H  0.73955125  0.15232504  0.20374792     0.44610
H1761       H  0.73558465  0.43670043  0.15954106     0.43330
H1762       H  0.74728565  0.37640800  0.30083975     0.43470
H1763       H  0.73018236  0.07079394  0.33970278     0.43820
O1764       O  0.54691202  0.34668782  0.19759701    -0.75050
O1765       O  0.58630537  0.30686164  0.21394004    -0.53950
C1766       C  0.57696506  0.33660952  0.20143715     0.78680
O1767       O  0.93638425  0.33637638  0.29052486    -0.59650
O1768       O  0.89532693  0.30797273  0.26797719    -0.52680
C1769       C  0.90598288  0.33115326  0.28500343     0.70700
O1770       O  0.54481229  0.33602009  0.29098958    -0.74200
O1771       O  0.58530567  0.30647965  0.26800564    -0.54770
C1772       C  0.57508198  0.33011711  0.28513784     0.76700
O1773       O  0.93825472  0.34641567  0.19458179    -0.59350
O1774       O  0.89745004  0.31178468  0.21402768    -0.52470
C1775       C  0.90797933  0.33915416  0.19972280     0.73290
Zr1776     Zr  0.49195535  0.32080323  0.20433173     2.54710
O1777       O  0.49162541  0.39058564  0.19852517    -0.79910
O1778       O  0.99437026  0.31042711  0.15942627    -0.93330
Zr1779     Zr  0.49080419  0.31677777  0.27793813     2.64680
O1780       O  0.49243781  0.38722147  0.27969796    -0.98290
O1781       O  0.98842093  0.30747253  0.32291778    -0.80350
O1782       O  0.52339604  0.31950733  0.24131369    -0.83700
O1783       O  0.95936238  0.32049983  0.24120364    -2.18410
O1784       O  0.93422802  0.18661689  0.19155967    -0.67090
O1785       O  0.89463208  0.21785257  0.21451721    -0.51660
C1786       C  0.90424746  0.19222415  0.19851535     0.71670
O1787       O  0.54516251  0.18428994  0.28673835    -0.60000
O1788       O  0.58584210  0.21820804  0.26675795    -0.51980
C1789       C  0.57551683  0.19247263  0.28219612     0.73480
O1790       O  0.93556240  0.18738314  0.28878307    -0.71400
O1791       O  0.89536803  0.22041403  0.26790648    -0.50070
C1792       C  0.90536623  0.19546631  0.28403063     0.74860
O1793       O  0.54243399  0.18118503  0.19283028    -0.66730
O1794       O  0.58306814  0.21246482  0.21447091    -0.53920
C1795       C  0.57248404  0.18620614  0.19930835     0.73240
Zr1796     Zr  0.98929308  0.20897898  0.20159125     2.77540
O1797       O  0.98924656  0.13930020  0.19445200    -0.97480
O1798       O  0.99078990  0.22185077  0.15698440    -0.78300
Zr1799     Zr  0.99024967  0.20459490  0.27518285     2.70070
O1800       O  0.98883275  0.13438318  0.27196562    -0.79540
O1801       O  0.49216481  0.20410710  0.32059036    -0.98630
Zr1802     Zr  0.55561731  0.26195380  0.23995974     2.21500
Zr1803     Zr  0.92536132  0.26405323  0.24009837     2.11130
O1804       O  0.95772464  0.20620907  0.23874877    -2.47320
O1805       O  0.52178845  0.20566297  0.23818231    -0.79340
O1806       O  0.95689507  0.26586939  0.20222324    -0.71530
O1807       O  0.52348846  0.26039823  0.27732006    -2.32490
O1808       O  0.52432136  0.26399258  0.20216750    -2.28700
O1809       O  0.95738827  0.26109243  0.27728273    -0.73290
H1810       H  0.94614982  0.34373350  0.24196398     0.78700
H1811       H  0.53733017  0.25956713  0.29192169     0.79790
H1812       H  0.94395735  0.18341850  0.23872167     0.82020
H1813       H  0.53863203  0.26426703  0.18769110     0.79620
H1814       H  0.50948388  0.29463172  0.32721603     0.42660
H1815       H  0.97346288  0.22066652  0.32596520     0.41630
H1816       H  0.49840006  0.12869131  0.25532093     0.41310
H1817       H  0.97261134  0.12885257  0.20623472     0.39240
H1818       H  0.96763964  0.22795866  0.15262692     0.42370
H1819       H  0.51537443  0.32260714  0.15415025     0.37160
H1820       H  0.48962585  0.40128669  0.21561556     0.43270
H1821       H  0.98121333  0.39572729  0.26430185     0.39690
H1822       H  0.97944646  0.13569760  0.17772275     0.44610
H1823       H  0.47701227  0.32751584  0.15261309     0.43330
H1824       H  0.47711373  0.39463600  0.29334320     0.43470
H1825       H  0.98548583  0.17756438  0.32532184     0.43820
C1826       C  0.62455157  0.13785003  0.15032923     0.03380
C1827       C  0.60171074  0.16231678  0.16204919    -0.12770
C1828       C  0.59595353  0.15958883  0.18771927     0.00880
C1829       C  0.61145359  0.13062555  0.20165505    -0.11300
C1830       C  0.63359040  0.10516796  0.18991456     0.03370
C1831       C  0.63988714  0.10880357  0.16418739    -0.10720
H1832       H  0.59035228  0.18549055  0.15152705     0.08960
H1833       H  0.60745748  0.12907007  0.22161606     0.06490
H1834       H  0.65911767  0.09147630  0.15548689     0.06340
C1835       C  0.61128063  0.14511537  0.33800902     0.03380
C1836       C  0.63097713  0.11639261  0.32697899    -0.12770
C1837       C  0.63402735  0.11412739  0.30088742     0.00880
C1838       C  0.61816680  0.14139599  0.28583928    -0.11300
C1839       C  0.59929760  0.17076888  0.29687723     0.03370
C1840       C  0.59660968  0.17305751  0.32285633    -0.10720
H1841       H  0.64205489  0.09424737  0.33851893     0.08960
H1842       H  0.61991122  0.13925733  0.26571669     0.06490
H1843       H  0.57970212  0.19384396  0.33117472     0.06340
C1844       C  0.86898142  0.14516730  0.33913421     0.03380
C1845       C  0.84711013  0.11949674  0.32741224    -0.12770
C1846       C  0.84523296  0.11759426  0.30141092     0.00880
C1847       C  0.86182666  0.14522438  0.28696490    -0.11300
C1848       C  0.88142921  0.17339877  0.29865593     0.03370
C1849       C  0.88511889  0.17301325  0.32471999    -0.10720
H1850       H  0.83446151  0.09778034  0.33847104     0.08960
H1851       H  0.86035335  0.14405248  0.26682093     0.06490
H1852       H  0.90348634  0.19145728  0.33335644     0.06340
C1853       C  0.60436911  0.39163568  0.33793939     0.03380
C1854       C  0.59266531  0.35896410  0.32505837    -0.12770
C1855       C  0.59829788  0.35434522  0.29927746     0.00880
C1856       C  0.61860691  0.38080199  0.28678343    -0.11300
C1857       C  0.63194963  0.41235078  0.29978843     0.03370
C1858       C  0.62483168  0.41770873  0.32517728    -0.10720
H1859       H  0.57673611  0.33857954  0.33461178     0.08960
H1860       H  0.62290431  0.37783692  0.26689357     0.06490
H1861       H  0.63455940  0.44287200  0.33474999     0.06340
C1862       C  0.87772950  0.39101853  0.33859354     0.03380
C1863       C  0.85649831  0.41727032  0.32693246    -0.12770
C1864       C  0.84884524  0.41275977  0.30159397     0.00880
C1865       C  0.86205859  0.38154366  0.28795748    -0.11300
C1866       C  0.88313821  0.35512719  0.29966760     0.03370
C1867       C  0.88993177  0.35945605  0.32514339    -0.10720
H1868       H  0.84735146  0.44220207  0.33716173     0.08960
H1869       H  0.85727460  0.37901056  0.26814348     0.06490
H1870       H  0.90790222  0.34062563  0.33388884     0.06340
O1871       O  0.55713634  0.44882372  0.53836368    -0.75050
O1872       O  0.52322624  0.48467264  0.56300442    -0.53950
C1873       C  0.54582896  0.45944689  0.55996384     0.78680
O1874       O  0.55745748  0.10346579  0.45112885    -0.59650
O1875       O  0.53091725  0.06442481  0.42341812    -0.52680
C1876       C  0.55028513  0.09246867  0.42871243     0.70700
O1877       O  0.55887541  0.09710458  0.53757213    -0.74200
O1878       O  0.52514067  0.06003451  0.56127211    -0.54770
C1879       C  0.54821770  0.08467714  0.55890449     0.76700
O1880       O  0.56179828  0.44456845  0.45295653    -0.59350
O1881       O  0.53184515  0.47825262  0.42427743    -0.52470
C1882       C  0.55343869  0.45269889  0.43044743     0.73290
Zr1883     Zr  0.54411031  0.46585864  0.49445214     2.54710
O1884       O  0.60399479  0.47138664  0.49564213    -0.79910
O1885       O  0.54661024  0.39552079  0.49518106    -0.93330
Zr1886     Zr  0.54221089  0.08269009  0.49386064     2.64680
O1887       O  0.60234894  0.08355319  0.49308225    -0.98290
O1888       O  0.54005061  0.15301110  0.49623539    -0.80350
O1889       O  0.54186766  0.02436829  0.51728347    -0.83700
O1890       O  0.54475803  0.02393879  0.47046078    -2.18410
O1891       O  0.93315449  0.44188286  0.44782650    -0.67090
O1892       O  0.96385354  0.97830896  0.42123955    -0.51660
C1893       C  0.94298557  0.45128860  0.42577890     0.71670
O1894       O  0.92030655  0.09480382  0.53333257    -0.60000
O1895       O  0.95270214  0.06132322  0.56027902    -0.51980
C1896       C  0.92864973  0.08388353  0.55540598     0.73480
O1897       O  0.92690098  0.09976820  0.44919938    -0.71400
O1898       O  0.95793882  0.06310406  0.42257813    -0.50070
C1899       C  0.93527045  0.08840805  0.42720809     0.74860
O1900       O  0.92721391  0.44207679  0.53229355    -0.66730
O1901       O  0.95437181  0.47980541  0.56040529    -0.53920
C1902       C  0.93434739  0.45254575  0.55470026     0.73240
Zr1903     Zr  0.94400142  0.46348541  0.49049443     2.77540
O1904       O  0.88400159  0.46687284  0.48861343    -0.97480
O1905       O  0.94270538  0.39314725  0.49004077    -0.78300
Zr1906     Zr  0.94256725  0.08092038  0.49129579     2.70070
O1907       O  0.88276018  0.08518960  0.48815387    -0.79540
O1908       O  0.94787462  0.15099536  0.49358424    -0.98630
Zr1909     Zr  0.98946324  0.02229249  0.53672010     2.21500
Zr1910     Zr  0.99544815  0.02247526  0.44638820     2.11130
O1911       O  0.94387593  0.02220391  0.46756621    -2.47320
O1912       O  0.94006671  0.02185435  0.51384080    -0.79340
O1913       O  0.99566049  0.46401219  0.46927261    -0.71530
O1914       O  0.99091049  0.08262381  0.51600174    -2.32490
O1915       O  0.99238237  0.46284819  0.51526934    -2.28700
O1916       O  0.99360748  0.08184156  0.46888185    -0.73290
H1917       H  0.56400295  0.02411957  0.45973856     0.78700
H1918       H  0.98994430  0.10390361  0.52770571     0.79790
H1919       H  0.92577482  0.02171121  0.45591511     0.82020
H1920       H  0.99209072  0.44111169  0.52653665     0.79620
H1921       H  0.51973940  0.15881037  0.50589764     0.42660
H1922       H  0.96105340  0.15799068  0.47865908     0.41630
H1923       H  0.87500816  0.05838053  0.49091478     0.41310
H1924       H  0.87924177  0.48114229  0.47305966     0.39240
H1925       H  0.96617339  0.38545433  0.48839188     0.42370
H1926       H  0.53094464  0.38783807  0.50850997     0.37160
H1927       H  0.60808703  0.99706633  0.50324102     0.43270
H1928       H  0.60859759  0.06831300  0.47811945     0.39690
H1929       H  0.87700680  0.43999084  0.48505185     0.44610
H1930       H  0.56868742  0.38956212  0.50203021     0.43330
H1931       H  0.60814214  0.11054907  0.48877545     0.43470
H1932       H  0.92542569  0.16083831  0.49003393     0.43820
C1933       C  0.92835179  0.43065852  0.40401890     0.00090
C1934       C  0.89632026  0.41498637  0.40636442    -0.11780
C1935       C  0.87914155  0.40143608  0.38540810     0.02330
C1936       C  0.89456538  0.40193398  0.36187135     0.00010
C1937       C  0.92705658  0.41511273  0.35967077    -0.11720
C1938       C  0.94381260  0.43017094  0.38012543     0.02210
H1939       H  0.88384381  0.41542638  0.42430674     0.15190
H1940       H  0.93862725  0.41606409  0.34135974     0.15190
C1941       C  0.97411560  0.45061212  0.37469571     0.36840
C1942       C  0.84563053  0.38798213  0.38832259     0.36750
N1943       N  0.99731084  0.46859723  0.36969131    -0.43500
N1944       N  0.81872582  0.37727033  0.39064593    -0.43500
C1945       C  0.56851031  0.43048127  0.40973315     0.00090
C1946       C  0.54711201  0.41252161  0.39299174    -0.11780
C1947       C  0.55816101  0.39959901  0.36971915     0.02330
C1948       C  0.59219394  0.40120243  0.36360545     0.00010
C1949       C  0.61426829  0.41568355  0.38163739    -0.11720
C1950       C  0.60263403  0.43068013  0.40448913     0.02210
H1951       H  0.52109761  0.41080693  0.39762233     0.15190
H1952       H  0.64047054  0.41679552  0.37744655     0.15190
C1953       C  0.62580359  0.44779261  0.42163083     0.36840
C1954       C  0.53331311  0.38965027  0.35161818     0.36750
N1955       N  0.64434944  0.46143308  0.43544497    -0.43500
N1956       N  0.51310121  0.38260913  0.33714886    -0.43500
C1957       C  0.88363123  0.13310486  0.36312199     0.00090
C1958       C  0.89542736  0.09532026  0.36374623    -0.11780
C1959       C  0.91061864  0.08063772  0.38461866     0.02330
C1960       C  0.91682365  0.10417592  0.40553760     0.00010
C1961       C  0.90483951  0.14255745  0.40528523    -0.11720
C1962       C  0.88812673  0.15713715  0.38419323     0.02210
H1963       H  0.89252174  0.07657935  0.34759709     0.15190
H1964       H  0.90865383  0.16109334  0.42135556     0.15190
C1965       C  0.87514957  0.19598680  0.38477437     0.36840
C1966       C  0.91707605  0.04014734  0.38395189     0.36750
N1967       N  0.86450869  0.22705782  0.38528826    -0.43500
N1968       N  0.92036474  0.00730806  0.38179663    -0.43500
C1969       C  0.56497288  0.11247140  0.40683405     0.00090
C1970       C  0.59773792  0.12619018  0.40745765    -0.11780
C1971       C  0.61358608  0.13869269  0.38542555     0.02330
C1972       C  0.59630606  0.13788772  0.36268172     0.00010
C1973       C  0.56323976  0.12678703  0.36249440    -0.11720
C1974       C  0.54752280  0.11424168  0.38398389     0.02210
H1975       H  0.61139846  0.12542343  0.42478394     0.15190
H1976       H  0.54984086  0.12635119  0.34498705     0.15190
C1977       C  0.51369046  0.10210923  0.38113037     0.36840
C1978       C  0.64724133  0.15217634  0.38646942     0.36750
N1979       N  0.98686997  0.09225700  0.37754070    -0.43500
N1980       N  0.67415330  0.16332319  0.38731159    -0.43500
C1981       C  0.67385511  0.33816262  0.08050401     0.00090
C1982       C  0.64167130  0.32745105  0.08705032    -0.11780
C1983       C  0.62678608  0.34158131  0.10897263     0.02330
C1984       C  0.64516264  0.36498718  0.12584678     0.00010
C1985       C  0.67699419  0.37701755  0.11822992    -0.11720
C1986       C  0.69064015  0.36511932  0.09540728     0.02210
H1987       H  0.62815966  0.30782467  0.07501885     0.15190
H1988       H  0.69183255  0.39535991  0.13010223     0.15190
C1989       C  0.72086225  0.38282864  0.08680601     0.36840
C1990       C  0.59237650  0.33241923  0.11289909     0.36750
N1991       N  0.74443143  0.39800894  0.07947197    -0.43500
N1992       N  0.56481408  0.32479775  0.11587062    -0.43500
C1993       C  0.81730274  0.33818474  0.08068892     0.00090
C1994       C  0.79670525  0.34250731  0.10170210    -0.11780
C1995       C  0.80817839  0.35875309  0.12381403     0.02330
C1996       C  0.84142851  0.37032733  0.12568748     0.00010
C1997       C  0.86238301  0.36594403  0.10485476    -0.11720
C1998       C  0.85053200  0.35028320  0.08234031     0.02210
H1999       H  0.77138659  0.33239389  0.10106145     0.15190
H2000       H  0.88818199  0.37393887  0.10639243     0.15190
C2001       C  0.87345987  0.34427142  0.06201382     0.36840
C2002       C  0.78565572  0.36093343  0.14476455     0.36750
N2003       N  0.89192226  0.33923780  0.04577741    -0.43500
N2004       N  0.76745890  0.36252686  0.16144265    -0.43500
C2005       C  0.63906556  0.14977291  0.12624290     0.00090
C2006       C  0.63459575  0.12768120  0.10447400    -0.11780
C2007       C  0.64935247  0.13897395  0.08175771     0.02330
C2008       C  0.66909994  0.17275006  0.08089112     0.00010
C2009       C  0.67289531  0.19464257  0.10291901    -0.11720
C2010       C  0.65861111  0.18332341  0.12531102     0.02210
H2011       H  0.61974666  0.10162287  0.10527404     0.15190
H2012       H  0.68747179  0.22095587  0.10290622     0.15190
C2013       C  0.66543594  0.20605487  0.14739832     0.36840
C2014       C  0.64448793  0.11496150  0.06003590     0.36750
N2015       N  0.67092595  0.22406894  0.16512509    -0.43500
N2016       N  0.64047676  0.09563862  0.04264992    -0.43500
C2017       C  0.82261406  0.16481605  0.07687628     0.00090
C2018       C  0.80626681  0.13606277  0.09018267    -0.11780
C2019       C  0.81883914  0.12218752  0.11267631     0.02330
C2020       C  0.84844608  0.13827003  0.12278962     0.00010
C2021       C  0.86664602  0.16368944  0.10730315    -0.11720
C2022       C  0.85360382  0.17775080  0.08494969     0.02210
H2023       H  0.78280853  0.12530302  0.08331623     0.15190
H2024       H  0.89057873  0.17427154  0.11305691     0.15190
C2025       C  0.87119541  0.20761974  0.07160045     0.36840
C2026       C  0.80015471  0.09136014  0.12392355     0.36750
N2027       N  0.88505628  0.23180567  0.06097106    -0.43500
N2028       N  0.78525992  0.06553158  0.13176796    -0.43500
C2029       C  0.91899823  0.43226615  0.57589739     0.00090
C2030       C  0.89166620  0.44920671  0.58741600    -0.11780
C2031       C  0.88154339  0.43815078  0.61138773     0.02330
C2032       C  0.89918946  0.40873368  0.62462405     0.00010
C2033       C  0.92432846  0.38891924  0.61128066    -0.11720
C2034       C  0.93480463  0.40106599  0.58756385     0.02210
H2035       H  0.87928731  0.47298027  0.57815102     0.15190
H2036       H  0.93700304  0.36465387  0.61957862     0.15190
C2037       C  0.96337803  0.38296151  0.57626693     0.36840
C2038       C  0.85404483  0.45978921  0.62148422     0.36750
N2039       N  0.48641353  0.36879774  0.56720265    -0.43500
N2040       N  0.83181682  0.47751953  0.62897485    -0.43500
C2041       C  0.90933378  0.09493116  0.57763517     0.00090
C2042       C  0.90203582  0.06443091  0.59397575    -0.11780
C2043       C  0.89565465  0.07126055  0.61905677     0.02330
C2044       C  0.89329765  0.10950062  0.62795991     0.00010
C2045       C  0.89810597  0.14046314  0.61134370    -0.11720
C2046       C  0.90663274  0.13339082  0.58623983     0.02210
H2047       H  0.90531526  0.03480079  0.58772856     0.15190
H2048       H  0.89695855  0.16992576  0.61828609     0.15190
C2049       C  0.91540495  0.16552709  0.57043860     0.36840
C2050       C  0.89689048  0.03885229  0.63601652     0.36750
N2051       N  0.92257075  0.19131051  0.55780820    -0.43500
N2052       N  0.89872917  0.01372626  0.65015151    -0.43500
C2053       C  0.58626358  0.41774276  0.62937977     0.00090
C2054       C  0.55462524  0.43371016  0.62847556    -0.11780
C2055       C  0.54068349  0.44547011  0.60619976     0.02330
C2056       C  0.55899847  0.44267176  0.58350607     0.00010
C2057       C  0.59079806  0.42615510  0.58424994    -0.11720
C2058       C  0.60451221  0.41367198  0.60698705     0.02210
H2059       H  0.54048492  0.43728070  0.64559982     0.15190
H2060       H  0.60518658  0.42363503  0.56721384     0.15190
C2061       C  0.63685159  0.39617951  0.60680003     0.36840
C2062       C  0.50730398  0.46018578  0.60801462     0.36750
N2063       N  0.66278636  0.38210438  0.60662565    -0.43500
N2064       N  0.98074168  0.47205049  0.61036379    -0.43500
C2065       C  0.56296223  0.09696240  0.58315591     0.00090
C2066       C  0.59462288  0.11388048  0.58452115    -0.11780
C2067       C  0.60983484  0.12030029  0.60787493     0.02330
C2068       C  0.59389791  0.10791278  0.62993468     0.00010
C2069       C  0.56270479  0.09119298  0.62839645    -0.11720
C2070       C  0.54650573  0.08761821  0.60593864     0.02210
H2071       H  0.60746694  0.12188227  0.56752036     0.15190
H2072       H  0.55004730  0.08229490  0.64536122     0.15190
C2073       C  0.51244427  0.07514569  0.60773436     0.36840
C2074       C  0.64085295  0.14068689  0.60888148     0.36750
N2075       N  0.48529723  0.06518268  0.60978656    -0.43500
N2076       N  0.66555481  0.15744764  0.60969739    -0.43500
C2077       C  0.63284996  0.13868441  0.86556313     0.00090
C2078       C  0.64858274  0.17440458  0.86311404    -0.11780
C2079       C  0.66537435  0.19123320  0.88304213     0.02330
C2080       C  0.66577278  0.17280608  0.90674181     0.00010
C2081       C  0.64882510  0.13738438  0.90933786    -0.11720
C2082       C  0.63298886  0.11994685  0.88885251     0.02210
H2083       H  0.64898585  0.18847731  0.84503468     0.15190
H2084       H  0.64899274  0.12251905  0.92711021     0.15190
C2085       C  0.61766648  0.08259097  0.89192236     0.36840
C2086       C  0.68301474  0.22658364  0.87777536     0.36750
N2087       N  0.60543694  0.05257849  0.89432131    -0.43500
N2088       N  0.69748636  0.25444133  0.87294938    -0.43500
C2089       C  0.82296794  0.33519032  0.90694334     0.00090
C2090       C  0.85644182  0.34589942  0.90885061    -0.11780
C2091       C  0.87360285  0.36182691  0.88837726     0.02330
C2092       C  0.85723238  0.36723881  0.86544025     0.00010
C2093       C  0.82393566  0.35615772  0.86365456    -0.11720
C2094       C  0.80667469  0.34118085  0.88398406     0.02210
H2095       H  0.86934172  0.34151074  0.92628524     0.15190
H2096       H  0.81098923  0.35952171  0.84612536     0.15190
C2097       C  0.77179999  0.33395814  0.88071356     0.36840
C2098       C  0.90760420  0.37311600  0.89157770     0.36750
N2099       N  0.74388018  0.32855810  0.87783950    -0.43500
N2100       N  0.93490953  0.38206175  0.89414975    -0.43500
C2101       C  0.63418487  0.36723546  0.86816037     0.00090
C2102       C  0.65364049  0.39141589  0.88346500    -0.11780
C2103       C  0.67036190  0.37676820  0.90427731     0.02330
C2104       C  0.66710936  0.33749416  0.91055453     0.00010
C2105       C  0.64604739  0.31400830  0.89664924    -0.11720
C2106       C  0.63002346  0.32807847  0.87549697     0.02210
H2107       H  0.65689463  0.42159427  0.87860193     0.15190
H2108       H  0.64297909  0.28394236  0.90193018     0.15190
C2109       C  0.61144792  0.30033922  0.86126083     0.36840
C2110       C  0.69227484  0.40185470  0.91798652     0.36750
N2111       N  0.59659373  0.27709087  0.85061282    -0.43500
N2112       N  0.71002851  0.42178737  0.92893906    -0.43500
C2113       C  0.85636673  0.13789914  0.86405875     0.00090
C2114       C  0.82173527  0.14203314  0.86416664    -0.11780
C2115       C  0.80468326  0.15574259  0.88502070     0.02330
C2116       C  0.82218306  0.16805515  0.90623480     0.00010
C2117       C  0.85675797  0.16397177  0.90649207    -0.11720
C2118       C  0.87392016  0.14886809  0.88571787     0.02210
H2119       H  0.80755126  0.13444267  0.84776919     0.15190
H2120       H  0.87043482  0.17305012  0.92282946     0.15190
C2121       C  0.90926046  0.14436891  0.88738931     0.36840
C2122       C  0.76903365  0.15472940  0.88451964     0.36750
N2123       N  0.93762762  0.14097681  0.88873825    -0.43500
N2124       N  0.74051799  0.15309672  0.88401944    -0.43500
O2125       O  0.92827211  0.69212927  0.79697292    -0.75050
O2126       O  0.95658215  0.64329937  0.77759150    -0.53950
C2127       C  0.93339340  0.65627363  0.79220188     0.78680
O2128       O  0.93597580  0.82022884  0.70061385    -0.59650
O2129       O  0.96064774  0.86777223  0.72372949    -0.52680
C2130       C  0.94048664  0.85581249  0.70662808     0.70700
O2131       O  0.93172962  0.69319681  0.70357411    -0.74200
O2132       O  0.95840945  0.64427322  0.72394799    -0.54770
C2133       C  0.93644318  0.65742899  0.70866816     0.76700
O2134       O  0.93119993  0.81786726  0.79991726    -0.59350
O2135       O  0.95771402  0.86669501  0.77931493    -0.52470
C2136       C  0.93580960  0.85366564  0.79492558     0.73290
Zr2137     Zr  0.95009162  0.75500552  0.78731545     2.54710
O2138       O  0.89002091  0.75663559  0.78666768    -0.79910
O2139       O  0.95358941  0.75345032  0.83265082    -0.93330
Zr2140     Zr  0.95275282  0.75626901  0.71402687     2.64680
O2141       O  0.89264308  0.75748093  0.71230479    -0.98290
O2142       O  0.96064951  0.75446436  0.66895358    -0.80350
O2143       O  0.95094801  0.71772218  0.75042040    -0.83700
O2144       O  0.95059915  0.79371772  0.75097063    -2.18410
O2145       O  0.56367517  0.81822537  0.80145536    -0.67090
O2146       O  0.53948694  0.86694176  0.77926332    -0.51660
C2147       C  0.56030431  0.85400112  0.79554537     0.71670
O2148       O  0.57179155  0.69333556  0.70879650    -0.60000
O2149       O  0.54017490  0.64444105  0.72484432    -0.51980
C2150       C  0.56495483  0.65761113  0.71207240     0.73480
O2151       O  0.56764004  0.81819448  0.70464319    -0.71400
O2152       O  0.53914271  0.86640377  0.72470456    -0.50070
C2153       C  0.56166100  0.85378896  0.70946504     0.74860
O2154       O  0.56628951  0.69060392  0.79849563    -0.66730
O2155       O  0.53948227  0.64228110  0.77760008    -0.53920
C2156       C  0.56185074  0.65480101  0.79287258     0.73240
Zr2157     Zr  0.54495610  0.75442297  0.78938415     2.77540
O2158       O  0.60516173  0.75270139  0.79096770    -0.97480
O2159       O  0.53388706  0.75105977  0.83397737    -0.78300
Zr2160     Zr  0.54749644  0.75543137  0.71625166     2.70070
O2161       O  0.60733764  0.75828663  0.71224649    -0.79540
O2162       O  0.53944509  0.75107387  0.67135673    -0.98630
Zr2163     Zr  0.49853673  0.67689443  0.75146860     2.21500
Zr2164     Zr  0.99892221  0.83355825  0.75221035     2.11130
O2165       O  0.54695177  0.79299162  0.75304253    -2.47320
O2166       O  0.54634286  0.71712252  0.75255749    -0.79340
O2167       O  0.99760328  0.79459984  0.78919366    -0.71530
O2168       O  0.50003931  0.71574588  0.71426664    -2.32490
O2169       O  0.49734435  0.71486017  0.78894867    -2.28700
O2170       O  0.00040499  0.79565651  0.71470474    -0.73290
H2171       H  0.93088901  0.80944412  0.75069230     0.78700
H2172       H  0.50075452  0.69959400  0.69953613     0.79790
H2173       H  0.56684590  0.80835905  0.75331354     0.82020
H2174       H  0.49673161  0.69844840  0.80349281     0.79620
H2175       H  0.96448934  0.72688364  0.66483886     0.42660
H2176       H  0.53391385  0.77776051  0.66617979     0.41630
H2177       H  0.61549158  0.75691317  0.72958743     0.41310
H2178       H  0.61238894  0.76483453  0.77516718     0.39240
H2179       H  0.52369142  0.77631013  0.83817054     0.42370
H2180       H  0.95943165  0.72641588  0.83677904     0.37160
H2181       H  0.88422010  0.74912318  0.76940364     0.43270
H2182       H  0.88596556  0.78020865  0.72242219     0.39690
H2183       H  0.61187601  0.77135752  0.80398115     0.44610
H2184       H  0.93045210  0.75631264  0.83843612     0.43330
H2185       H  0.88747843  0.76477202  0.69491008     0.43470
H2186       H  0.56185615  0.74650213  0.66448236     0.43820
C2187       C  0.87231338  0.62194405  0.84092012     0.03380
C2188       C  0.89981637  0.63960051  0.82960451    -0.12770
C2189       C  0.90977457  0.62987367  0.80498571     0.00880
C2190       C  0.89069303  0.60298933  0.79140193    -0.11300
C2191       C  0.86246033  0.58616668  0.80250304     0.03370
C2192       C  0.85552996  0.59330741  0.82761845    -0.10720
H2193       H  0.91190326  0.66334491  0.83908606     0.08960
H2194       H  0.89571875  0.59835471  0.77177195     0.06490
H2195       H  0.83449311  0.57905010  0.83616251     0.06340
O2196       O  0.80517767  0.58182368  0.69880803    -0.75050
O2197       O  0.84340045  0.54722769  0.72054987    -0.53950
C2198       C  0.83510477  0.57395009  0.70527664     0.78680
O2199       O  0.69190792  0.57470245  0.79537291    -0.59650
O2200       O  0.65303141  0.54353180  0.77220362    -0.52680
C2201       C  0.66160588  0.56735308  0.78940062     0.70700
O2202       O  0.80621403  0.57434733  0.79374688    -0.74200
O2203       O  0.84536157  0.54245073  0.77087486    -0.54770
C2204       C  0.83654970  0.56641956  0.78790110     0.76700
O2205       O  0.69281454  0.57802230  0.69598593    -0.59350
O2206       O  0.65511119  0.54559637  0.71989155    -0.52470
C2207       C  0.66303714  0.57043452  0.70314162     0.73290
Zr2208     Zr  0.74899605  0.55890592  0.70801706     2.54710
O2209       O  0.74704548  0.62919882  0.70641991    -0.79910
O2210       O  0.75090780  0.55369071  0.66271409    -0.93330
Zr2211     Zr  0.74888002  0.55824810  0.78258584     2.64680
O2212       O  0.74933400  0.62865977  0.78242709    -0.98290
O2213       O  0.74937024  0.55864581  0.82799904    -0.80350
O2214       O  0.78052119  0.55949176  0.74523905    -0.83700
O2215       O  0.71736321  0.55971822  0.74552182    -2.18410
O2216       O  0.69207751  0.92737515  0.69429025    -0.67090
O2217       O  0.65489057  0.95938847  0.71909036    -0.51660
C2218       C  0.66238722  0.93544534  0.70168445     0.71670
O2219       O  0.80608951  0.92832253  0.79397639    -0.60000
O2220       O  0.84506420  0.96111894  0.77168792    -0.51980
C2221       C  0.83632250  0.93726059  0.78872365     0.73480
O2222       O  0.69307908  0.92672327  0.79458949    -0.71400
O2223       O  0.65382680  0.95880502  0.77244328    -0.50070
C2224       C  0.66276090  0.93458107  0.78925857     0.74860
O2225       O  0.80557020  0.92285657  0.69620155    -0.66730
O2226       O  0.84300124  0.95634149  0.71954053    -0.53920
C2227       C  0.83534883  0.93072810  0.70322136     0.73240
Zr2228     Zr  0.74900285  0.94430798  0.70693867     2.77540
O2229       O  0.74748842  0.87391675  0.70556727    -0.97480
O2230       O  0.75106740  0.94930079  0.66167546    -0.78300
Zr2231     Zr  0.74932635  0.94321808  0.78136038     2.70070
O2232       O  0.74965387  0.87297933  0.77802820    -0.79540
O2233       O  0.75042551  0.93863529  0.82667761    -0.98630
Zr2234     Zr  0.81207325  0.00134275  0.74481692     2.21500
Zr2235     Zr  0.68593296  0.00144902  0.74571294     2.11130
O2236       O  0.71736134  0.94299363  0.74446257    -2.47320
O2237       O  0.78099586  0.94287707  0.74405317    -0.79340
O2238       O  0.71658628  0.50169654  0.70754270    -0.71530
O2239       O  0.78079448  0.00085666  0.78260789    -2.32490
O2240       O  0.78155421  0.00166476  0.70679608    -2.28700
O2241       O  0.71710840  0.00061709  0.78322891    -0.73290
H2242       H  0.70316109  0.58217100  0.74577552     0.78700
H2243       H  0.79492999  0.00080182  0.79705495     0.79790
H2244       H  0.70306081  0.92064311  0.74445597     0.82020
H2245       H  0.79622692  0.50190446  0.69252909     0.79620
H2246       H  0.76315355  0.53612685  0.83258680     0.42660
H2247       H  0.73267542  0.95624272  0.83249906     0.41630
H2248       H  0.76140192  0.86755382  0.76215675     0.41310
H2249       H  0.72827382  0.86669260  0.71605043     0.39240
H2250       H  0.73466067  0.96954695  0.65762883     0.42370
H2251       H  0.77382078  0.54569545  0.65872589     0.37160
H2252       H  0.74933970  0.63746369  0.72402247     0.43270
H2253       H  0.72880473  0.63609237  0.77371107     0.39690
H2254       H  0.74065462  0.86762195  0.68832129     0.44610
H2255       H  0.74947167  0.58074562  0.65681535     0.43330
H2256       H  0.74534807  0.63603475  0.80004922     0.43470
H2257       H  0.74209297  0.91234957  0.83041563     0.43820
C2258       C  0.62262964  0.88229251  0.84342730     0.03380
C2259       C  0.59186892  0.87223705  0.83322492    -0.12770
C2260       C  0.58436473  0.88002392  0.80804299     0.00880
C2261       C  0.60656759  0.90257576  0.79383028    -0.11300
C2262       C  0.63693020  0.91455333  0.80418395     0.03370
C2263       C  0.64459300  0.90387955  0.82872921    -0.10720
H2264       H  0.57455473  0.85549433  0.84420361     0.08960
H2265       H  0.60179263  0.90747093  0.77422589     0.06490
H2266       H  0.66864733  0.91119073  0.83612500     0.06340
C2267       C  0.87294689  0.88481750  0.84285691     0.03380
C2268       C  0.90224863  0.87006060  0.83240447    -0.12770
C2269       C  0.91205513  0.87974311  0.80777937     0.00880
C2270       C  0.89188044  0.90471800  0.79373744    -0.11300
C2271       C  0.86219718  0.91904457  0.80407450     0.03370
C2272       C  0.85434445  0.91097929  0.82893003    -0.10720
H2273       H  0.91566449  0.84790774  0.84240561     0.08960
H2274       H  0.89722175  0.90927579  0.77414049     0.06490
H2275       H  0.83161819  0.92241749  0.83682517     0.06340
C2276       C  0.62017064  0.62060208  0.84245089     0.03380
C2277       C  0.59208830  0.63579051  0.83091255    -0.12770
C2278       C  0.58506983  0.62788388  0.80566136     0.00880
C2279       C  0.60651620  0.60292525  0.79221769    -0.11300
C2280       C  0.63523422  0.58775618  0.80374000     0.03370
C2281       C  0.64120844  0.59627469  0.82892463    -0.10720
H2282       H  0.57733634  0.65689922  0.84101746     0.08960
H2283       H  0.60273007  0.59851451  0.77244227     0.06490
H2284       H  0.66377569  0.58629556  0.83761724     0.06340
C2285       C  0.60566411  0.61509495  0.65560843     0.03380
C2286       C  0.58399192  0.63495606  0.67152931    -0.12770
C2287       C  0.58614595  0.63167958  0.69735868     0.00880
C2288       C  0.61219220  0.61053235  0.70768613    -0.11300
C2289       C  0.63575889  0.59250729  0.69197211     0.03370
C2290       C  0.63225896  0.59458964  0.66585211    -0.10720
H2291       H  0.56385940  0.65154191  0.66358338     0.08960
H2292       H  0.61498781  0.60951110  0.72775107     0.06490
H2293       H  0.64874829  0.57835055  0.65375730     0.06340
C2294       C  0.59813678  0.90580200  0.65436145     0.03380
C2295       C  0.57649414  0.88473128  0.66974258    -0.12770
C2296       C  0.58231239  0.88085800  0.69524242     0.00880
C2297       C  0.61124442  0.89635205  0.70536373    -0.11300
C2298       C  0.63417254  0.91581297  0.69001914     0.03370
C2299       C  0.62747994  0.92065698  0.66451186    -0.10720
H2300       H  0.55437021  0.87203056  0.66186269     0.08960
H2301       H  0.61632066  0.89253854  0.72504033     0.06490
H2302       H  0.64377457  0.93820885  0.65313790     0.06340
C2303       C  0.88903030  0.61621253  0.65501183     0.03380
C2304       C  0.86218830  0.59936027  0.66741609    -0.12770
C2305       C  0.86202799  0.59595440  0.69338106     0.00880
C2306       C  0.88836136  0.61162008  0.70728114    -0.11300
C2307       C  0.91431296  0.63109298  0.69504275     0.03370
C2308       C  0.91455118  0.63287021  0.66886749    -0.10720
H2309       H  0.84261404  0.58607894  0.65663347     0.08960
H2310       H  0.88766736  0.61057402  0.72745226     0.06490
H2311       H  0.93485962  0.64696379  0.65927003     0.06340
C2312       C  0.89486159  0.90091650  0.65237999     0.03380
C2313       C  0.86490972  0.90882592  0.66494973    -0.12770
C2314       C  0.86344361  0.91080189  0.69101144     0.00880
C2315       C  0.89042285  0.89770787  0.70510310    -0.11300
C2316       C  0.91879223  0.88331360  0.69316730     0.03370
C2317       C  0.92149632  0.88687808  0.66704070    -0.10720
H2318       H  0.84258208  0.91471913  0.65487531     0.08960
H2319       H  0.88843867  0.89647203  0.72525462     0.06490
H2320       H  0.94452868  0.87805049  0.65850626     0.06340
O2321       O  0.81467205  0.82542925  0.95081507    -0.75050
O2322       O  0.78258804  0.79265758  0.92309482    -0.53950
C2323       C  0.80569983  0.81667178  0.92841579     0.78680
O2324       O  0.81304667  0.67447539  0.03391018    -0.59650
O2325       O  0.78285381  0.70836150  0.06269908    -0.52680
C2326       C  0.80509398  0.68368590  0.05641353     0.70700
O2327       O  0.81377328  0.67748044  0.94979163    -0.74200
O2328       O  0.78157242  0.71053755  0.92233477    -0.54770
C2329       C  0.80477420  0.68649883  0.92755389     0.76700
O2330       O  0.81178718  0.82820832  0.03632454    -0.59350
O2331       O  0.78204083  0.79170824  0.06371380    -0.52470
C2332       C  0.80322208  0.81808214  0.05864383     0.73290
Zr2333     Zr  0.79667262  0.80887188  0.99340852     2.54710
O2334       O  0.85668414  0.80588912  0.99449506    -0.79910
O2335       O  0.79642535  0.87927927  0.99275227    -0.93330
Zr2336     Zr  0.79513287  0.69285357  0.99214170     2.64680
O2337       O  0.85524123  0.69034108  0.99140845    -0.98290
O2338       O  0.79095248  0.62258169  0.99145011    -0.80350
O2339       O  0.79590998  0.75128981  0.96907725    -0.83700
O2340       O  0.79704133  0.75041079  0.01640013    -2.18410
O2341       O  0.68144316  0.82836189  0.03703286    -0.67090
O2342       O  0.71248686  0.79360787  0.06444038    -0.51660
C2343       C  0.69034178  0.81895081  0.05921626     0.71670
O2344       O  0.67647176  0.67940156  0.95074148    -0.60000
O2345       O  0.70849381  0.71220126  0.92297633    -0.51980
C2346       C  0.68469222  0.68912532  0.92826926     0.73480
O2347       O  0.67778157  0.67729033  0.03617187    -0.71400
O2348       O  0.71128357  0.70958570  0.06303390    -0.50070
C2349       C  0.68719437  0.68673988  0.05837430     0.74860
O2350       O  0.67977850  0.82976968  0.95319762    -0.66730
O2351       O  0.70773409  0.79375042  0.92421721    -0.53920
C2352       C  0.68631841  0.81945819  0.93065599     0.73240
Zr2353     Zr  0.69763179  0.80999937  0.99454669     2.77540
O2354       O  0.63749127  0.80924940  0.99479590    -0.97480
O2355       O  0.70012275  0.88032138  0.99509468    -0.78300
Zr2356     Zr  0.69611285  0.69360835  0.99337722     2.70070
O2357       O  0.63609233  0.69034197  0.99424793    -0.79540
O2358       O  0.70104871  0.62344288  0.99232465    -0.98630
Zr2359     Zr  0.74558141  0.75215850  0.94662623     2.21500
Zr2360     Zr  0.74698071  0.75070094  0.03963939     2.11130
O2361       O  0.69641655  0.75152352  0.01746804    -2.47320
O2362       O  0.69595587  0.75232460  0.97036149    -0.79340
O2363       O  0.74741433  0.81004807  0.01768005    -0.71530
O2364       O  0.74528201  0.69272144  0.96885310    -2.32490
O2365       O  0.74678060  0.81069151  0.97008104    -2.28700
O2366       O  0.74600056  0.69188221  0.01665252    -0.73290
H2367       H  0.81603926  0.75012474  0.02721502     0.78700
H2368       H  0.74493571  0.67095915  0.95751229     0.79790
H2369       H  0.67768203  0.75190240  0.02868266     0.82020
H2370       H  0.74679374  0.83290315  0.95919389     0.79620
H2371       H  0.77744043  0.61658301  0.97660158     0.42660
H2372       H  0.71127273  0.61666571  0.00846839     0.41630
H2373       H  0.62887065  0.71722316  0.99102139     0.41310
H2374       H  0.63134401  0.79267274  0.00910948     0.39240
H2375       H  0.72145779  0.88632555  0.00316138     0.42370
H2376       H  0.78329668  0.88618202  0.97788894     0.37160
H2377       H  0.86218034  0.78047852  0.98697904     0.43270
H2378       H  0.86226210  0.70720817  0.00536348     0.39690
H2379       H  0.63105990  0.83570279  0.00003044     0.44610
H2380       H  0.81937273  0.88643690  0.98828917     0.43330
H2381       H  0.86076888  0.66380773  0.99690144     0.43470
H2382       H  0.67803506  0.61402185  0.99375457     0.43820
C2383       C  0.63260175  0.87622830  0.15142491     0.03380
C2384       C  0.64286794  0.91086857  0.16305912    -0.12770
C2385       C  0.63513388  0.91892819  0.18825251     0.00880
C2386       C  0.61317635  0.89466661  0.20097938    -0.11300
C2387       C  0.60199350  0.86069729  0.18947560     0.03370
C2388       C  0.61294690  0.85073936  0.16550709    -0.10720
H2389       H  0.65883806  0.93080408  0.15322384     0.08960
H2390       H  0.60655267  0.90070883  0.22021736     0.06490
H2391       H  0.60616461  0.82268917  0.15820767     0.06340
C2392       C  0.85831572  0.63457138  0.14989767     0.03380
C2393       C  0.87480165  0.66544635  0.16196506    -0.12770
C2394       C  0.88028620  0.66519458  0.18774618     0.00880
C2395       C  0.86714330  0.63534111  0.20231738    -0.11300
C2396       C  0.85068490  0.60453770  0.19084632     0.03370
C2397       C  0.84896451  0.60283567  0.16476061    -0.10720
H2398       H  0.88325797  0.69045314  0.15171666     0.08960
H2399       H  0.86946636  0.63624807  0.22241947     0.06490
H2400       H  0.83892056  0.57692731  0.15670637     0.06340
C2401       C  0.85501022  0.88259877  0.15008114     0.03380
C2402       C  0.87681799  0.85811147  0.16251583    -0.12770
C2403       C  0.88418844  0.86447316  0.18765853     0.00880
C2404       C  0.87053058  0.89620951  0.20048710    -0.11300
C2405       C  0.84883758  0.92126743  0.18817316     0.03370
C2406       C  0.84182532  0.91465847  0.16276369    -0.10720
H2407       H  0.88690285  0.83301644  0.15296074     0.08960
H2408       H  0.87538604  0.90008446  0.22020251     0.06490
H2409       H  0.82370928  0.93253334  0.15341967     0.06340
O2410       O  0.68807028  0.93941192  0.19688189    -0.75050
O2411       O  0.64660869  0.96780408  0.21942275    -0.53950
C2412       C  0.65756114  0.94446772  0.20235463     0.78680
O2413       O  0.79470815  0.93111818  0.29502917    -0.59650
O2414       O  0.83527995  0.96599949  0.27545514    -0.52680
C2415       C  0.82495783  0.93870231  0.28996970     0.70700
O2416       O  0.68625883  0.92958931  0.29282907    -0.74200
O2417       O  0.64610278  0.96533594  0.27370906    -0.54770
C2418       C  0.65612230  0.93753042  0.28780399     0.76700
O2419       O  0.79568164  0.94097348  0.19673407    -0.59350
O2420       O  0.83633196  0.96873194  0.22011186    -0.52470
C2421       C  0.82595432  0.94596947  0.20259295     0.73290
Zr2422     Zr  0.74173197  0.95925861  0.21059164     2.54710
O2423       O  0.74208471  0.88891933  0.21231522    -0.79910
O2424       O  0.74282479  0.96261067  0.16520178    -0.93330
Zr2425     Zr  0.74063002  0.95425615  0.28380970     2.64680
O2426       O  0.73990595  0.88377678  0.28392730    -0.98290
O2427       O  0.73951142  0.95943489  0.32913241    -0.80350
O2428       O  0.70884315  0.95590527  0.24689481    -0.83700
O2429       O  0.77357678  0.95597731  0.24722214    -2.18410
O2430       O  0.79668137  0.58794614  0.20003002    -0.67090
O2431       O  0.83738098  0.55700832  0.22167189    -0.51660
C2432       C  0.82708897  0.58120028  0.20518866     0.71670
O2433       O  0.68701961  0.59123246  0.29660205    -0.60000
O2434       O  0.64687722  0.56095596  0.27393480    -0.51980
C2435       C  0.65712801  0.58648402  0.28978383     0.73480
O2436       O  0.79287277  0.59294081  0.29699885    -0.71400
O2437       O  0.83403202  0.56318165  0.27469963    -0.50070
C2438       C  0.82297799  0.58907694  0.29019318     0.74860
O2439       O  0.68717215  0.59056101  0.20081319    -0.66730
O2440       O  0.64599910  0.55687614  0.22032464    -0.53920
C2441       C  0.65673917  0.58245645  0.20480523     0.73240
Zr2442     Zr  0.74147811  0.57152630  0.21394730     2.77540
O2443       O  0.74218946  0.64125638  0.22063241    -0.97480
O2444       O  0.73850166  0.57940603  0.16904390    -0.78300
Zr2445     Zr  0.74037493  0.56527041  0.28720530     2.70070
O2446       O  0.73974786  0.63390636  0.29742525    -0.79540
O2447       O  0.73994375  0.54800992  0.33119227    -0.98630
Zr2448     Zr  0.67537847  0.51256369  0.24793031     2.21500
Zr2449     Zr  0.80686025  0.51302631  0.24888201     2.11130
O2450       O  0.77294348  0.56960394  0.25052527    -2.47320
O2451       O  0.70857428  0.56943036  0.25036770    -0.79340
O2452       O  0.77476060  0.51547018  0.21155153    -0.71530
O2453       O  0.70649167  0.50981349  0.28584273    -2.32490
O2454       O  0.70871335  0.51525119  0.21109487    -2.28700
O2455       O  0.77462467  0.50993289  0.28646622    -0.73290
H2456       H  0.78716457  0.93303475  0.24644643     0.78700
H2457       H  0.69210407  0.50901873  0.30026491     0.79790
H2458       H  0.78600461  0.59292678  0.25055621     0.82020
H2459       H  0.69526735  0.51593720  0.19628154     0.79620
H2460       H  0.71584699  0.96187789  0.33360091     0.42660
H2461       H  0.76347517  0.54833188  0.33611117     0.41630
H2462       H  0.74042806  0.64702637  0.28103832     0.41310
H2463       H  0.76523390  0.64746241  0.22522787     0.39240
H2464       H  0.72654001  0.55622268  0.16306848     0.42370
H2465       H  0.72434438  0.98000266  0.16078761     0.37160
H2466       H  0.72788956  0.88250360  0.22681168     0.43270
H2467       H  0.75825331  0.87591431  0.27272928     0.39690
H2468       H  0.73955124  0.65232504  0.20374792     0.44610
H2469       H  0.73558469  0.93670041  0.15954106     0.43330
H2470       H  0.74728565  0.87640801  0.30083976     0.43470
H2471       H  0.73018238  0.57079396  0.33970278     0.43820
O2472       O  0.54691203  0.84668782  0.19759700    -0.75050
O2473       O  0.58630538  0.80686164  0.21394004    -0.53950
C2474       C  0.57696507  0.83660952  0.20143714     0.78680
O2475       O  0.93638427  0.83637638  0.29052486    -0.59650
O2476       O  0.89532694  0.80797272  0.26797719    -0.52680
C2477       C  0.90598289  0.83115326  0.28500342     0.70700
O2478       O  0.54481230  0.83602009  0.29098958    -0.74200
O2479       O  0.58530568  0.80647965  0.26800565    -0.54770
C2480       C  0.57508199  0.83011711  0.28513784     0.76700
O2481       O  0.93825473  0.84641566  0.19458179    -0.59350
O2482       O  0.89745005  0.81178468  0.21402769    -0.52470
C2483       C  0.90797934  0.83915415  0.19972281     0.73290
Zr2484     Zr  0.49195536  0.82080323  0.20433174     2.54710
O2485       O  0.49162544  0.89058565  0.19852517    -0.79910
O2486       O  0.99437015  0.81042708  0.15942626    -0.93330
Zr2487     Zr  0.49080420  0.81677778  0.27793814     2.64680
O2488       O  0.49243783  0.88722148  0.27969796    -0.98290
O2489       O  0.98842093  0.80747248  0.32291777    -0.80350
O2490       O  0.52339606  0.81950734  0.24131369    -0.83700
O2491       O  0.95936239  0.82049982  0.24120364    -2.18410
O2492       O  0.93422803  0.68661688  0.19155967    -0.67090
O2493       O  0.89463208  0.71785256  0.21451721    -0.51660
C2494       C  0.90424747  0.69222415  0.19851536     0.71670
O2495       O  0.54516252  0.68428995  0.28673836    -0.60000
O2496       O  0.58584210  0.71820804  0.26675796    -0.51980
C2497       C  0.57551684  0.69247264  0.28219613     0.73480
O2498       O  0.93556241  0.68738313  0.28878307    -0.71400
O2499       O  0.89536804  0.72041401  0.26790648    -0.50070
C2500       C  0.90536624  0.69546630  0.28403063     0.74860
O2501       O  0.54243399  0.68118504  0.19283028    -0.66730
O2502       O  0.58306815  0.71246482  0.21447091    -0.53920
C2503       C  0.57248405  0.68620615  0.19930835     0.73240
Zr2504     Zr  0.98929308  0.70897896  0.20159126     2.77540
O2505       O  0.98924656  0.63930017  0.19445202    -0.97480
O2506       O  0.99078991  0.72185073  0.15698440    -0.78300
Zr2507     Zr  0.99024968  0.70459489  0.27518285     2.70070
O2508       O  0.98883276  0.63438317  0.27196562    -0.79540
O2509       O  0.49216482  0.70410712  0.32059037    -0.98630
Zr2510     Zr  0.55561732  0.76195380  0.23995975     2.21500
Zr2511     Zr  0.92536133  0.76405322  0.24009838     2.11130
O2512       O  0.95772465  0.70620906  0.23874877    -2.47320
O2513       O  0.52178846  0.70566297  0.23818231    -0.79340
O2514       O  0.95689507  0.76586937  0.20222324    -0.71530
O2515       O  0.52348847  0.76039824  0.27732006    -2.32490
O2516       O  0.52432136  0.76399258  0.20216750    -2.28700
O2517       O  0.95738828  0.76109241  0.27728273    -0.73290
H2518       H  0.94614983  0.84373348  0.24196398     0.78700
H2519       H  0.53733018  0.75956714  0.29192169     0.79790
H2520       H  0.94395736  0.68341849  0.23872167     0.82020
H2521       H  0.53863204  0.76426703  0.18769110     0.79620
H2522       H  0.50948388  0.79463172  0.32721603     0.42660
H2523       H  0.97346288  0.72066650  0.32596520     0.41630
H2524       H  0.49840006  0.62869131  0.25532094     0.41310
H2525       H  0.97261133  0.62885256  0.20623474     0.39240
H2526       H  0.96763965  0.72795860  0.15262692     0.42370
H2527       H  0.51537447  0.82260702  0.15415026     0.37160
H2528       H  0.48962589  0.90128670  0.21561556     0.43270
H2529       H  0.98121334  0.89572728  0.26430187     0.39690
H2530       H  0.97944647  0.63569757  0.17772277     0.44610
H2531       H  0.47701232  0.82751591  0.15261309     0.43330
H2532       H  0.47711374  0.89463602  0.29334320     0.43470
H2533       H  0.98548585  0.67756437  0.32532184     0.43820
C2534       C  0.62455157  0.63785002  0.15032922     0.03380
C2535       C  0.60171074  0.66231678  0.16204918    -0.12770
C2536       C  0.59595353  0.65958883  0.18771927     0.00880
C2537       C  0.61145358  0.63062555  0.20165505    -0.11300
C2538       C  0.63359039  0.60516796  0.18991456     0.03370
C2539       C  0.63988713  0.60880355  0.16418739    -0.10720
H2540       H  0.59035229  0.68549055  0.15152705     0.08960
H2541       H  0.60745747  0.62907008  0.22161606     0.06490
H2542       H  0.65911765  0.59147628  0.15548689     0.06340
C2543       C  0.61128063  0.64511538  0.33800902     0.03380
C2544       C  0.63097713  0.61639261  0.32697899    -0.12770
C2545       C  0.63402734  0.61412738  0.30088742     0.00880
C2546       C  0.61816679  0.64139599  0.28583928    -0.11300
C2547       C  0.59929760  0.67076888  0.29687724     0.03370
C2548       C  0.59660968  0.67305751  0.32285633    -0.10720
H2549       H  0.64205488  0.59424736  0.33851894     0.08960
H2550       H  0.61991122  0.63925732  0.26571669     0.06490
H2551       H  0.57970213  0.69384396  0.33117472     0.06340
C2552       C  0.86898142  0.64516729  0.33913421     0.03380
C2553       C  0.84711013  0.61949674  0.32741225    -0.12770
C2554       C  0.84523296  0.61759425  0.30141092     0.00880
C2555       C  0.86182666  0.64522437  0.28696490    -0.11300
C2556       C  0.88142921  0.67339876  0.29865593     0.03370
C2557       C  0.88511890  0.67301324  0.32471999    -0.10720
H2558       H  0.83446150  0.59778034  0.33847104     0.08960
H2559       H  0.86035335  0.64405247  0.26682094     0.06490
H2560       H  0.90348635  0.69145727  0.33335644     0.06340
C2561       C  0.60436912  0.89163569  0.33793939     0.03380
C2562       C  0.59266532  0.85896410  0.32505837    -0.12770
C2563       C  0.59829789  0.85434522  0.29927746     0.00880
C2564       C  0.61860692  0.88080199  0.28678343    -0.11300
C2565       C  0.63194964  0.91235078  0.29978843     0.03370
C2566       C  0.62483168  0.91770874  0.32517728    -0.10720
H2567       H  0.57673613  0.83857954  0.33461178     0.08960
H2568       H  0.62290432  0.87783692  0.26689357     0.06490
H2569       H  0.63455940  0.94287201  0.33474999     0.06340
C2570       C  0.87772952  0.89101853  0.33859354     0.03380
C2571       C  0.85649832  0.91727032  0.32693246    -0.12770
C2572       C  0.84884525  0.91275977  0.30159397     0.00880
C2573       C  0.86205860  0.88154366  0.28795747    -0.11300
C2574       C  0.88313823  0.85512720  0.29966760     0.03370
C2575       C  0.88993179  0.85945606  0.32514339    -0.10720
H2576       H  0.84735147  0.94220207  0.33716173     0.08960
H2577       H  0.85727462  0.87901056  0.26814348     0.06490
H2578       H  0.90790224  0.84062563  0.33388884     0.06340
O2579       O  0.55713634  0.94882373  0.53836368    -0.75050
O2580       O  0.52322625  0.98467265  0.56300441    -0.53950
C2581       C  0.54582896  0.95944690  0.55996384     0.78680
O2582       O  0.55745749  0.60346578  0.45112886    -0.59650
O2583       O  0.53091725  0.56442480  0.42341812    -0.52680
C2584       C  0.55028513  0.59246867  0.42871244     0.70700
O2585       O  0.55887542  0.59710457  0.53757214    -0.74200
O2586       O  0.52514067  0.56003450  0.56127212    -0.54770
C2587       C  0.54821770  0.58467713  0.55890450     0.76700
O2588       O  0.56179828  0.94456846  0.45295653    -0.59350
O2589       O  0.53184515  0.97825263  0.42427743    -0.52470
C2590       C  0.55343870  0.95269890  0.43044742     0.73290
Zr2591     Zr  0.54411031  0.96585865  0.49445213     2.54710
O2592       O  0.60399479  0.97138666  0.49564213    -0.79910
O2593       O  0.54661025  0.89552080  0.49518106    -0.93330
Zr2594     Zr  0.54221090  0.58269008  0.49386065     2.64680
O2595       O  0.60234895  0.58355317  0.49308225    -0.98290
O2596       O  0.54005062  0.65301109  0.49623540    -0.80350
O2597       O  0.54186766  0.52436828  0.51728348    -0.83700
O2598       O  0.54475804  0.52393878  0.47046078    -2.18410
O2599       O  0.93315450  0.94188286  0.44782650    -0.67090
O2600       O  0.96385354  0.47830895  0.42123955    -0.51660
C2601       C  0.94298558  0.95128861  0.42577890     0.71670
O2602       O  0.92030656  0.59480381  0.53333257    -0.60000
O2603       O  0.95270215  0.56132320  0.56027901    -0.51980
C2604       C  0.92864974  0.58388352  0.55540598     0.73480
O2605       O  0.92690099  0.59976820  0.44919938    -0.71400
O2606       O  0.95793883  0.56310405  0.42257813    -0.50070
C2607       C  0.93527046  0.58840804  0.42720809     0.74860
O2608       O  0.92721391  0.94207679  0.53229354    -0.66730
O2609       O  0.95437180  0.97980542  0.56040529    -0.53920
C2610       C  0.93434739  0.95254575  0.55470026     0.73240
Zr2611     Zr  0.94400142  0.96348541  0.49049443     2.77540
O2612       O  0.88400159  0.96687282  0.48861343    -0.97480
O2613       O  0.94270541  0.89314725  0.49004076    -0.78300
Zr2614     Zr  0.94256726  0.58092038  0.49129579     2.70070
O2615       O  0.88276020  0.58518962  0.48815387    -0.79540
O2616       O  0.94787465  0.65099535  0.49358424    -0.98630
Zr2617     Zr  0.98946325  0.52229248  0.53672010     2.21500
Zr2618     Zr  0.99544815  0.52247524  0.44638820     2.11130
O2619       O  0.94387593  0.52220390  0.46756621    -2.47320
O2620       O  0.94006672  0.52185435  0.51384080    -0.79340
O2621       O  0.99566049  0.96401221  0.46927261    -0.71530
O2622       O  0.99091050  0.58262380  0.51600174    -2.32490
O2623       O  0.99238238  0.96284820  0.51526934    -2.28700
O2624       O  0.99360749  0.58184155  0.46888185    -0.73290
H2625       H  0.56400295  0.52411956  0.45973856     0.78700
H2626       H  0.98994432  0.60390359  0.52770571     0.79790
H2627       H  0.92577482  0.52171121  0.45591511     0.82020
H2628       H  0.99209073  0.94111170  0.52653665     0.79620
H2629       H  0.51973939  0.65881037  0.50589762     0.42660
H2630       H  0.96105343  0.65799067  0.47865908     0.41630
H2631       H  0.87500817  0.55838056  0.49091476     0.41310
H2632       H  0.87924178  0.98114228  0.47305967     0.39240
H2633       H  0.96617342  0.88545434  0.48839189     0.42370
H2634       H  0.53094465  0.88783808  0.50850997     0.37160
H2635       H  0.60808703  0.49706631  0.50324102     0.43270
H2636       H  0.60859760  0.56831299  0.47811945     0.39690
H2637       H  0.87700681  0.93999082  0.48505184     0.44610
H2638       H  0.56868743  0.88956213  0.50203021     0.43330
H2639       H  0.60814215  0.61054905  0.48877546     0.43470
H2640       H  0.92542573  0.66083831  0.49003393     0.43820
C2641       C  0.92835180  0.93065853  0.40401890     0.00090
C2642       C  0.89632026  0.91498639  0.40636442    -0.11780
C2643       C  0.87914156  0.90143609  0.38540810     0.02330
C2644       C  0.89456540  0.90193398  0.36187135     0.00010
C2645       C  0.92705660  0.91511273  0.35967077    -0.11720
C2646       C  0.94381261  0.93017094  0.38012543     0.02210
H2647       H  0.88384381  0.91542640  0.42430674     0.15190
H2648       H  0.93862727  0.91606408  0.34135974     0.15190
C2649       C  0.97411562  0.95061211  0.37469571     0.36840
C2650       C  0.84563054  0.88798214  0.38832258     0.36750
N2651       N  0.99731086  0.96859721  0.36969131    -0.43500
N2652       N  0.81872583  0.87727034  0.39064592    -0.43500
C2653       C  0.56851032  0.93048128  0.40973315     0.00090
C2654       C  0.54711202  0.91252161  0.39299174    -0.11780
C2655       C  0.55816102  0.89959901  0.36971915     0.02330
C2656       C  0.59219395  0.90120244  0.36360545     0.00010
C2657       C  0.61426830  0.91568357  0.38163739    -0.11720
C2658       C  0.60263404  0.93068016  0.40448913     0.02210
H2659       H  0.52109762  0.91080693  0.39762233     0.15190
H2660       H  0.64047054  0.91679555  0.37744654     0.15190
C2661       C  0.62580359  0.94779265  0.42163082     0.36840
C2662       C  0.53331312  0.88965026  0.35161819     0.36750
N2663       N  0.64434944  0.96143313  0.43544496    -0.43500
N2664       N  0.51310122  0.88260912  0.33714886    -0.43500
C2665       C  0.88363123  0.63310485  0.36312199     0.00090
C2666       C  0.89542735  0.59532025  0.36374624    -0.11780
C2667       C  0.91061864  0.58063771  0.38461867     0.02330
C2668       C  0.91682366  0.60417591  0.40553760     0.00010
C2669       C  0.90483952  0.64255745  0.40528522    -0.11720
C2670       C  0.88812674  0.65713714  0.38419322     0.02210
H2671       H  0.89252173  0.57657934  0.34759710     0.15190
H2672       H  0.90865386  0.66109334  0.42135555     0.15190
C2673       C  0.87514959  0.69598681  0.38477436     0.36840
C2674       C  0.91707603  0.54014732  0.38395190     0.36750
N2675       N  0.86450872  0.72705783  0.38528825    -0.43500
N2676       N  0.92036469  0.50730805  0.38179666    -0.43500
C2677       C  0.56497288  0.61247140  0.40683405     0.00090
C2678       C  0.59773792  0.62619018  0.40745765    -0.11780
C2679       C  0.61358608  0.63869270  0.38542556     0.02330
C2680       C  0.59630606  0.63788772  0.36268173     0.00010
C2681       C  0.56323976  0.62678703  0.36249440    -0.11720
C2682       C  0.54752280  0.61424167  0.38398390     0.02210
H2683       H  0.61139847  0.62542344  0.42478394     0.15190
H2684       H  0.54984086  0.62635118  0.34498705     0.15190
C2685       C  0.51369047  0.60210921  0.38113037     0.36840
C2686       C  0.64724133  0.65217635  0.38646942     0.36750
N2687       N  0.98686999  0.59225694  0.37754069    -0.43500
N2688       N  0.67415330  0.66332320  0.38731160    -0.43500
C2689       C  0.67385512  0.83816264  0.08050401     0.00090
C2690       C  0.64167130  0.82745111  0.08705030    -0.11780
C2691       C  0.62678607  0.84158138  0.10897262     0.02330
C2692       C  0.64516265  0.86498720  0.12584678     0.00010
C2693       C  0.67699421  0.87701754  0.11822993    -0.11720
C2694       C  0.69064018  0.86511930  0.09540729     0.02210
H2695       H  0.62815964  0.80782475  0.07501882     0.15190
H2696       H  0.69183258  0.89535987  0.13010225     0.15190
C2697       C  0.72086229  0.88282860  0.08680604     0.36840
C2698       C  0.59237648  0.83241934  0.11289907     0.36750
N2699       N  0.74443149  0.89800889  0.07947200    -0.43500
N2700       N  0.56481405  0.82479791  0.11587059    -0.43500
C2701       C  0.81730275  0.83818471  0.08068893     0.00090
C2702       C  0.79670528  0.84250726  0.10170211    -0.11780
C2703       C  0.80817842  0.85875305  0.12381404     0.02330
C2704       C  0.84142853  0.87032732  0.12568749     0.00010
C2705       C  0.86238302  0.86594403  0.10485476    -0.11720
C2706       C  0.85053202  0.85028319  0.08234032     0.02210
H2707       H  0.77138662  0.83239382  0.10106147     0.15190
H2708       H  0.88818200  0.87393888  0.10639243     0.15190
C2709       C  0.87345988  0.84427142  0.06201383     0.36840
C2710       C  0.78565575  0.86093339  0.14476457     0.36750
N2711       N  0.89192227  0.83923780  0.04577741    -0.43500
N2712       N  0.76745894  0.86252681  0.16144267    -0.43500
C2713       C  0.63906556  0.64977290  0.12624290     0.00090
C2714       C  0.63459574  0.62768119  0.10447400    -0.11780
C2715       C  0.64935247  0.63897395  0.08175771     0.02330
C2716       C  0.66909994  0.67275004  0.08089113     0.00010
C2717       C  0.67289533  0.69464254  0.10291902    -0.11720
C2718       C  0.65861113  0.68332338  0.12531102     0.02210
H2719       H  0.61974663  0.60162288  0.10527403     0.15190
H2720       H  0.68747182  0.72095583  0.10290624     0.15190
C2721       C  0.66543597  0.70605483  0.14739833     0.36840
C2722       C  0.64448791  0.61496151  0.06003590     0.36750
N2723       N  0.67092599  0.72406888  0.16512511    -0.43500
N2724       N  0.64047674  0.59563864  0.04264991    -0.43500
C2725       C  0.82261407  0.66481605  0.07687628     0.00090
C2726       C  0.80626680  0.63606278  0.09018268    -0.11780
C2727       C  0.81883913  0.62218753  0.11267632     0.02330
C2728       C  0.84844608  0.63827002  0.12278962     0.00010
C2729       C  0.86664602  0.66368942  0.10730315    -0.11720
C2730       C  0.85360383  0.67775079  0.08494969     0.02210
H2731       H  0.78280852  0.62530303  0.08331624     0.15190
H2732       H  0.89057873  0.67427152  0.11305691     0.15190
C2733       C  0.87119542  0.70761972  0.07160045     0.36840
C2734       C  0.80015470  0.59136015  0.12392356     0.36750
N2735       N  0.88505630  0.73180563  0.06097105    -0.43500
N2736       N  0.78525990  0.56553159  0.13176797    -0.43500
C2737       C  0.91899823  0.93226615  0.57589739     0.00090
C2738       C  0.89166619  0.94920670  0.58741599    -0.11780
C2739       C  0.88154338  0.93815077  0.61138773     0.02330
C2740       C  0.89918945  0.90873368  0.62462404     0.00010
C2741       C  0.92432845  0.88891924  0.61128065    -0.11720
C2742       C  0.93480463  0.90106599  0.58756385     0.02210
H2743       H  0.87928730  0.97298026  0.57815101     0.15190
H2744       H  0.93700303  0.86465386  0.61957861     0.15190
C2745       C  0.96337803  0.88296151  0.57626692     0.36840
C2746       C  0.85404481  0.95978919  0.62148421     0.36750
N2747       N  0.48641354  0.86879775  0.56720265    -0.43500
N2748       N  0.83181679  0.97751950  0.62897483    -0.43500
C2749       C  0.90933379  0.59493115  0.57763517     0.00090
C2750       C  0.90203585  0.56443089  0.59397576    -0.11780
C2751       C  0.89565468  0.57126053  0.61905677     0.02330
C2752       C  0.89329766  0.60950061  0.62795991     0.00010
C2753       C  0.89810597  0.64046313  0.61134369    -0.11720
C2754       C  0.90663274  0.63339080  0.58623982     0.02210
H2755       H  0.90531530  0.53480077  0.58772857     0.15190
H2756       H  0.89695853  0.66992574  0.61828608     0.15190
C2757       C  0.91540493  0.66552708  0.57043859     0.36840
C2758       C  0.89689053  0.53885228  0.63601653     0.36750
N2759       N  0.92257071  0.69131050  0.55780819    -0.43500
N2760       N  0.89872924  0.51372626  0.65015152    -0.43500
C2761       C  0.58626358  0.91774276  0.62937977     0.00090
C2762       C  0.55462524  0.93371017  0.62847556    -0.11780
C2763       C  0.54068349  0.94547012  0.60619976     0.02330
C2764       C  0.55899847  0.94267177  0.58350607     0.00010
C2765       C  0.59079806  0.92615510  0.58424994    -0.11720
C2766       C  0.60451221  0.91367198  0.60698705     0.02210
H2767       H  0.54048492  0.93728071  0.64559982     0.15190
H2768       H  0.60518657  0.92363504  0.56721385     0.15190
C2769       C  0.63685158  0.89617951  0.60680003     0.36840
C2770       C  0.50730399  0.96018581  0.60801462     0.36750
N2771       N  0.66278635  0.88210437  0.60662565    -0.43500
N2772       N  0.98074165  0.97205045  0.61036378    -0.43500
C2773       C  0.56296224  0.59696238  0.58315591     0.00090
C2774       C  0.59462289  0.61388047  0.58452116    -0.11780
C2775       C  0.60983484  0.62030029  0.60787494     0.02330
C2776       C  0.59389792  0.60791277  0.62993468     0.00010
C2777       C  0.56270481  0.59119295  0.62839645    -0.11720
C2778       C  0.54650574  0.58761818  0.60593864     0.02210
H2779       H  0.60746694  0.62188228  0.56752036     0.15190
H2780       H  0.55004733  0.58229486  0.64536123     0.15190
C2781       C  0.51244430  0.57514563  0.60773437     0.36840
C2782       C  0.64085294  0.64068691  0.60888148     0.36750
N2783       N  0.48529726  0.56518261  0.60978657    -0.43500
N2784       N  0.66555480  0.65744767  0.60969739    -0.43500
C2785       C  0.63284997  0.63868440  0.86556313     0.00090
C2786       C  0.64858274  0.67440458  0.86311404    -0.11780
C2787       C  0.66537436  0.69123320  0.88304213     0.02330
C2788       C  0.66577279  0.67280608  0.90674181     0.00010
C2789       C  0.64882512  0.63738438  0.90933786    -0.11720
C2790       C  0.63298887  0.61994684  0.88885251     0.02210
H2791       H  0.64898585  0.68847731  0.84503468     0.15190
H2792       H  0.64899275  0.62251904  0.92711022     0.15190
C2793       C  0.61766649  0.58259096  0.89192236     0.36840
C2794       C  0.68301474  0.72658364  0.87777536     0.36750
N2795       N  0.60543696  0.55257847  0.89432131    -0.43500
N2796       N  0.69748637  0.75444133  0.87294938    -0.43500
C2797       C  0.82296794  0.83519033  0.90694334     0.00090
C2798       C  0.85644182  0.84589943  0.90885062    -0.11780
C2799       C  0.87360284  0.86182693  0.88837727     0.02330
C2800       C  0.85723238  0.86723881  0.86544025     0.00010
C2801       C  0.82393566  0.85615772  0.86365456    -0.11720
C2802       C  0.80667470  0.84118085  0.88398407     0.02210
H2803       H  0.86934172  0.84151075  0.92628524     0.15190
H2804       H  0.81098923  0.85952171  0.84612537     0.15190
C2805       C  0.77180000  0.83395813  0.88071356     0.36840
C2806       C  0.90760420  0.87311602  0.89157770     0.36750
N2807       N  0.74388018  0.82855809  0.87783951    -0.43500
N2808       N  0.93490952  0.88206177  0.89414975    -0.43500
C2809       C  0.63418488  0.86723545  0.86816037     0.00090
C2810       C  0.65364049  0.89141588  0.88346500    -0.11780
C2811       C  0.67036190  0.87676820  0.90427731     0.02330
C2812       C  0.66710936  0.83749415  0.91055453     0.00010
C2813       C  0.64604740  0.81400829  0.89664923    -0.11720
C2814       C  0.63002347  0.82807847  0.87549697     0.02210
H2815       H  0.65689462  0.92159427  0.87860193     0.15190
H2816       H  0.64297910  0.78394236  0.90193018     0.15190
C2817       C  0.61144794  0.80033921  0.86126082     0.36840
C2818       C  0.69227484  0.90185469  0.91798652     0.36750
N2819       N  0.59659376  0.77709086  0.85061281    -0.43500
N2820       N  0.71002851  0.92178737  0.92893906    -0.43500
C2821       C  0.85636673  0.63789913  0.86405876     0.00090
C2822       C  0.82173527  0.64203312  0.86416664    -0.11780
C2823       C  0.80468326  0.65574258  0.88502071     0.02330
C2824       C  0.82218307  0.66805515  0.90623481     0.00010
C2825       C  0.85675797  0.66397177  0.90649208    -0.11720
C2826       C  0.87392016  0.64886809  0.88571787     0.02210
H2827       H  0.80755126  0.63444266  0.84776920     0.15190
H2828       H  0.87043482  0.67305012  0.92282946     0.15190
C2829       C  0.90926046  0.64436892  0.88738931     0.36840
C2830       C  0.76903365  0.65472938  0.88451965     0.36750
N2831       N  0.93762762  0.64097682  0.88873825    -0.43500
N2832       N  0.74051799  0.65309670  0.88401945    -0.43500
loop_ 
_geom_bond_atom_site_label_1 
_geom_bond_atom_site_label_2 
_geom_bond_distance 
_geom_bond_site_symmetry_2 
_ccdc_geom_bond_type 
O1          Zr13   2.404       .  S
O1            C3   1.282       .  A
O2        Zr1455   2.487       .  S
O2            C3   1.299       .  A
C3           C65   1.489       .  S
O4          Zr16   2.425       .  S
O4            C6   1.284       .  A
O5          Zr40   2.483       .  S
O5            C6   1.298       .  A
C6          C192   1.486       .  S
O7          Zr16   2.407       .  S
O7            C9   1.282       .  A
O8        Zr1455   2.471       .  S
O8            C9   1.296       .  A
C9          C183   1.473       .  S
O10         Zr13   2.398       .  S
O10          C12   1.281       .  A
O11         Zr40   2.484       .  S
O11          C12   1.298       .  A
C12         C145   1.484       .  S
Zr13         O14   2.434       .  S
Zr13         O15   2.436       .  S
Zr13         O19   2.358       .  S
Zr13         O20   2.368       .  S
Zr13         O43   2.364       .  S
Zr13       O1461   2.365       .  S
O14          H57   0.990       .  S
O15          H56   0.990       .  S
O15          H60   0.990       .  S
Zr16         O17   2.437       .  S
Zr16         O18   2.437       .  S
Zr16         O20   2.364       .  S
Zr16         O19   2.367       .  S
Zr16         O46   2.363       .  S
Zr16       O1460   2.372       .  S
O17          H58   0.990       .  S
O17          H61   0.990       .  S
O18          H51   0.990       .  S
O19       Zr1455   2.389       .  S
O20         Zr40   2.395       .  S
O20          H47   0.966       .  S
O21         Zr33   2.420       .  S
O21          C23   1.285       .  A
O22       Zr1456   2.480   1_455  S
O22          C23   1.297       .  A
C23         C136   1.487       .  S
O24         Zr36   2.393       .  S
O24          C26   1.278       .  A
O25         Zr39   2.470   1_455  S
O25          C26   1.296       .  A
C26         C163   1.466       .  S
O27         Zr36   2.401       .  S
O27          C29   1.279       .  A
O28       Zr1456   2.471   1_455  S
O28          C29   1.296       .  A
C29         C172   1.468       .  S
O30         Zr33   2.421       .  S
O30          C32   1.286       .  A
O31         Zr39   2.485   1_455  S
O31          C32   1.298       .  A
C32         C154   1.493       .  S
Zr33         O34   2.441       .  S
Zr33         O35   2.433       .  S
Zr33         O41   2.366       .  S
Zr33         O42   2.355       .  S
Zr33         O45   2.365   1_455  S
Zr33       O1459   2.367   1_455  S
O34          H54   0.989       .  S
O34          H59   0.988       .  S
O35          H55   0.990       .  S
Zr36         O37   2.434       .  S
Zr36         O38   2.435       .  S
Zr36         O42   2.358       .  S
Zr36         O41   2.358       .  S
Zr36         O44   2.365       .  S
Zr36       O1462   2.362       .  S
O37          H53   0.990       .  S
O38          H52   0.990       .  S
O38          H62   0.990       .  S
Zr39       O1418   2.487       .  S
Zr39       O1424   2.471       .  S
Zr39         O42   2.385   1_655  S
Zr39         O44   2.409   1_655  S
Zr39         O45   2.397       .  S
Zr39       O1435   2.389       .  S
Zr40       O1438   2.480       .  S
Zr40       O1444   2.471       .  S
Zr40         O43   2.401       .  S
Zr40         O46   2.397       .  S
Zr40       O1457   2.398       .  S
O41       Zr1456   2.398   1_455  S
O41          H49   0.965       .  S
O43       Zr1449   2.367       .  S
O44       Zr1432   2.372   1_455  S
O44          H48   0.966       .  S
O45       Zr1429   2.365       .  S
O45          H50   0.966       .  S
O46       Zr1452   2.362       .  S
C63         C697   1.499       .  S
C63          C64   1.406       .  A
C63          C68   1.397       .  A
C64          C65   1.418       .  A
C64          H69   1.083       .  S
C65          C66   1.412       .  A
C66          C67   1.413       .  A
C66          H70   1.082       .  S
C67          C80   1.479       .  S
C67          C68   1.395       .  A
C68          H71   1.085       .  S
O72         Zr84   2.458       .  S
O72          C74   1.291       .  A
O73        Zr818   2.412       .  S
O73          C74   1.282       .  A
C74         C181   1.473       .  S
O75         Zr87   2.469       .  S
O75          C77   1.295       .  A
O76        Zr819   2.424       .  S
O76          C77   1.284       .  A
C77         C156   1.489       .  S
O78         Zr87   2.464       .  S
O78          C80   1.295       .  A
O79        Zr818   2.408       .  S
O79          C80   1.280       .  A
O81         Zr84   2.459       .  S
O81          C83   1.291       .  A
O82        Zr819   2.415       .  S
O82          C83   1.284       .  A
C83         C165   1.473       .  S
Zr84         O85   2.433       .  S
Zr84         O86   2.436       .  S
Zr84         O90   2.375       .  S
Zr84         O91   2.379       .  S
Zr84        O114   2.375       .  S
Zr84        O824   2.378       .  S
O85         H128   0.990       .  S
O86         H127   0.990       .  S
O86         H131   0.990       .  S
Zr87         O88   2.434       .  S
Zr87         O89   2.435       .  S
Zr87         O91   2.368       .  S
Zr87         O90   2.372       .  S
Zr87        O823   2.367       .  S
Zr87        O825   2.373       .  S
O88         H129   0.990       .  S
O88         H132   0.990       .  S
O89         H122   0.990       .  S
O90        Zr818   2.381       .  S
O91        Zr819   2.384       .  S
O91         H118   0.966       .  S
O92        Zr104   2.476       .  S
O92          C94   1.294       .  A
O93        Zr111   2.396       .  S
O93          C94   1.281       .  A
C94         C174   1.471       .  S
O95        Zr107   2.454       .  S
O95          C97   1.293       .  A
O96        Zr110   2.414       .  S
O96          C97   1.281       .  A
C97         C147   1.478       .  S
O98        Zr107   2.450       .  S
O98         C100   1.291       .  A
O99        Zr111   2.432       .  S
O99         C100   1.286       .  A
C100        C138   1.486       .  S
O101       Zr104   2.472       .  S
O101        C103   1.294       .  A
O102       Zr110   2.407       .  S
O102        C103   1.282       .  A
C103        C190   1.478       .  S
Zr104       O105   2.435       .  S
Zr104       O106   2.435       .  S
Zr104       O112   2.380       .  S
Zr104       O113   2.381       .  S
Zr104       O116   2.382       .  S
Zr104       O822   2.378       .  S
O105        H125   0.990       .  S
O105        H130   0.990       .  S
O106        H126   0.990       .  S
Zr107       O108   2.434       .  S
Zr107       O109   2.436       .  S
Zr107       O113   2.370       .  S
Zr107       O112   2.370       .  S
Zr107       O117   2.376       .  S
Zr107       O115   2.367       .  S
O108        H124   0.990       .  S
O109        H123   0.990       .  S
O109        H133   0.990       .  S
Zr110       O781   2.412       .  S
Zr110       O787   2.408       .  S
Zr110       O113   2.382       .  S
Zr110       O115   2.384       .  S
Zr110       O116   2.390       .  S
Zr110       O798   2.381       .  S
Zr111       O784   2.424       .  S
Zr111       O790   2.415       .  S
Zr111       O112   2.388       .  S
Zr111       O117   2.381       .  S
Zr111       O799   2.384       .  S
Zr111       O822   2.388       .  S
O112        H120   0.966       .  S
O114       Zr812   2.378   1_545  S
O114       Zr819   2.388       .  S
O115       Zr795   2.367       .  S
O115        H119   0.966       .  S
O116       Zr792   2.378       .  S
O116        H829   0.966       .  S
O117       Zr795   2.373       .  S
H121        O824   0.966       .  S
C134        C685   1.503       .  S
C134        C135   1.407       .  A
C134        C139   1.402       .  A
C135        C136   1.412       .  A
C135        H140   1.082       .  S
C136        C137   1.412       .  A
C137        C138   1.414       .  A
C137        H141   1.084       .  S
C138        C139   1.404       .  A
C139        H142   1.083       .  S
C143        C676   1.496       .  S
C143        C144   1.405       .  A
C143        C148   1.397       .  A
C144        C145   1.418       .  A
C144        H149   1.084       .  S
C145        C146   1.411       .  A
C146        C147   1.410       .  A
C146        H150   1.084       .  S
C147        C148   1.397       .  A
C148        H151   1.085       .  S
C152        C661   1.481       .  S
C152        C153   1.400       .  A
C152        C157   1.396       .  A
C153        C154   1.411       .  A
C153        H158   1.085       .  S
C154        C155   1.417       .  A
C155        C156   1.421       .  A
C155        H159   1.082       .  S
C156        C157   1.403       .  A
C157        H160   1.085       .  S
C161        C652   1.479       .  S
C161        C162   1.399       .  A
C161        C166   1.404       .  A
C162        C163   1.393       .  A
C162        H167   1.086       .  S
C163        C164   1.401       .  A
C164        C165   1.413       .  A
C164        H168   1.083       .  S
C165        C166   1.410       .  A
C166        H169   1.084       .  S
C170        C637   1.485       .  S
C170        C171   1.406       .  A
C170        C175   1.406       .  A
C171        C172   1.395       .  A
C171        H176   1.085       .  S
C172        C173   1.400       .  A
C173        C174   1.410       .  A
C173        H177   1.084       .  S
C174        C175   1.406       .  A
C175        H178   1.084       .  S
C179        C628   1.477       .  S
C179        C180   1.400       .  A
C179        C184   1.399       .  A
C180        C181   1.397       .  A
C180        H185   1.085       .  S
C181        C182   1.412       .  A
C182        C183   1.409       .  A
C182        H186   1.082       .  S
C183        C184   1.405       .  A
C184        H187   1.085       .  S
C188        C616   1.523       .  S
C188        C189   1.411       .  A
C188        C193   1.424       .  A
C189        C190   1.400       .  A
C189        H194   1.075       .  S
C190        C191   1.407       .  A
C191        C192   1.402       .  A
C191        H195   1.084       .  S
C192        C193   1.410       .  A
C193        H196   1.080       .  S
O197       Zr209   2.463       .  S
O197        C199   1.292       .  A
O198       Zr235   2.407       .  S
O198        C199   1.284       .  A
C199        C673   1.490       .  S
O200       Zr212   2.444   1_554  S
O200        C202   1.286       .  A
O201       Zr236   2.410       .  S
O201        C202   1.283       .  A
C202        C601   1.465       .  S
O203       Zr212   2.446       .  S
O203        C205   1.288       .  A
O204       Zr235   2.420       .  S
O204        C205   1.287       .  A
C205        C700   1.482       .  S
O206       Zr209   2.474   1_554  S
O206        C208   1.294       .  A
O207       Zr236   2.388       .  S
O207        C208   1.281       .  A
C208        C577   1.486       .  S
Zr209       O210   2.433       .  S
Zr209       O211   2.435       .  S
Zr209       O215   2.377       .  S
Zr209       O216   2.371   1_556  S
Zr209       O239   2.376   1_556  S
Zr209       O241   2.383       .  S
O210        H253   0.990       .  S
O211        H252   0.990       .  S
O211        H256   0.990       .  S
Zr212       O213   2.436       .  S
Zr212       O214   2.436       .  S
Zr212       O216   2.375   1_556  S
Zr212       O215   2.372       .  S
Zr212       O240   2.379       .  S
Zr212       O242   2.379   1_556  S
O213        H254   0.990   1_556  S
O213        H257   0.990       .  S
O214        H247   0.990       .  S
O215       Zr235   2.373       .  S
O216       Zr236   2.374       .  S
O216        H243   0.966       .  S
O217       Zr229   2.449   1_554  S
O217        C219   1.287       .  A
O218       Zr236   2.426       .  S
O218        C219   1.286       .  A
C219        C565   1.475       .  S
O220       Zr232   2.472       .  S
O220        C222   1.294       .  A
O221       Zr235   2.405       .  S
O221        C222   1.283       .  A
C222        C664   1.498       .  S
O223       Zr232   2.475   1_554  S
O223        C225   1.293       .  A
O224       Zr236   2.383       .  S
O224        C225   1.281       .  A
C225        C592   1.491       .  S
O226       Zr229   2.435       .  S
O226        C228   1.285       .  A
O227       Zr235   2.427       .  S
O227        C228   1.287       .  A
C228        C688   1.472       .  S
Zr229       O230   2.436       .  S
Zr229       O231   2.433       .  S
Zr229       O237   2.370   1_556  S
Zr229       O238   2.376       .  S
Zr229       O241   2.378       .  S
Zr229       O239   2.373   1_556  S
O230        H250   0.990   1_556  S
O230        H255   0.990   1_556  S
O231        H251   0.990   1_556  S
Zr232       O233   2.434       .  S
Zr232       O234   2.434       .  S
Zr232       O238   2.379       .  S
Zr232       O237   2.379   1_556  S
Zr232       O242   2.381   1_556  S
Zr232       O240   2.380       .  S
O233        H249   0.990       .  S
O234        H248   0.990   1_556  S
O234        H258   0.990       .  S
Zr235       O238   2.373       .  S
Zr235       O240   2.379       .  S
Zr235       O241   2.380       .  S
Zr236       O237   2.373       .  S
Zr236       O239   2.369       .  S
Zr236       O242   2.375       .  S
O237        H245   0.966       .  S
O240        H244   0.966       .  S
O241        H246   0.966       .  S
C259        C568   1.510       .  S
C259        C260   1.412       .  A
C259        C264   1.407       .  A
C260        C261   1.412       .  A
C260        H265   1.082       .  S
C261        C288   1.477       .  S
C261        C262   1.399       .  A
C262        C263   1.401       .  A
C262        H266   1.084       .  S
C263        C350   1.459       .  S
C263        C264   1.399       .  A
C264        H267   1.081       .  S
C268        C604   1.515       .  S
C268        C269   1.416       .  A
C268        C273   1.409       .  A
C269        C270   1.401       .  A
C269        H274   1.081       .  S
C270        C370   1.467       .  S
C270        C271   1.400       .  A
C271        C272   1.399       .  A
C271        H275   1.083       .  S
C272        C308   1.467       .  S
C272        C273   1.402       .  A
C273        H276   1.074       .  S
C277        C580   1.482       .  S
C277        C278   1.396       .  A
C277        C282   1.402       .  A
C278        C279   1.399       .  A
C278        H283   1.085       .  S
C279        C359   1.457       .  S
C279        C280   1.405       .  A
C280        C281   1.402       .  A
C280        H284   1.084       .  S
C281        C297   1.474       .  S
C281        C282   1.411       .  A
C282        H285   1.085       .  S
O286       Zr298   2.398       .  S
O286        C288   1.280       .  A
O287      Zr1032   2.469       .  S
O287        C288   1.295       .  A
O289       Zr301   2.411       .  S
O289        C291   1.281       .  A
O290      Zr1033   2.455       .  S
O290        C291   1.293       .  A
C291        C448   1.462       .  S
O292       Zr301   2.409       .  S
O292        C294   1.281       .  A
O293      Zr1032   2.446       .  S
O293        C294   1.291       .  A
C294        C441   1.458       .  S
O295       Zr298   2.388       .  S
O295        C297   1.279       .  A
O296      Zr1033   2.472       .  S
O296        C297   1.295       .  A
Zr298       O299   2.434       .  S
Zr298       O300   2.437       .  S
Zr298       O304   2.356       .  S
Zr298       O305   2.358       .  S
Zr298      O1036   2.360       .  S
Zr298      O1038   2.352       .  S
O299        H342   0.990       .  S
O300        H341   0.990       .  S
O300        H345   0.990       .  S
Zr301       O302   2.437       .  S
Zr301       O303   2.436       .  S
Zr301       O305   2.368       .  S
Zr301       O304   2.368       .  S
Zr301      O1037   2.368       .  S
Zr301      O1039   2.372       .  S
O302        H343   0.990       .  S
O302        H346   0.990       .  S
O303        H336   0.990       .  S
O304      Zr1032   2.382       .  S
O305      Zr1033   2.391       .  S
O305        H332   0.966       .  S
O306       Zr318   2.421       .  S
O306        C308   1.285       .  A
O307       Zr325   2.442       .  S
O307        C308   1.289       .  A
O309       Zr321   2.390       .  S
O309        C311   1.277       .  A
O310       Zr324   2.458       .  S
O310        C311   1.293       .  A
C311        C421   1.460       .  S
O312       Zr321   2.392       .  S
O312        C314   1.278       .  A
O313       Zr325   2.477       .  S
O313        C314   1.297       .  A
C314        C430   1.466       .  S
O315       Zr318   2.405       .  S
O315        C317   1.281       .  A
O316       Zr324   2.446       .  S
O316        C317   1.290       .  A
C317        C414   1.464       .  S
Zr318       O319   2.436       .  S
Zr318       O320   2.427       .  S
Zr318       O326   2.346       .  S
Zr318       O327   2.360       .  S
Zr318       O330   2.361       .  S
Zr318       O328   2.363       .  S
O319        H339   0.990       .  S
O319        H344   0.990       .  S
O320        H340   0.990       .  S
Zr321       O322   2.434       .  S
Zr321       O323   2.435       .  S
Zr321       O327   2.368       .  S
Zr321       O326   2.367       .  S
Zr321       O331   2.362       .  S
Zr321       O329   2.360       .  S
O322        H338   0.990       .  S
O323        H337   0.990       .  S
O323        H347   0.990       .  S
Zr324       O995   2.469   1_545  S
Zr324      O1001   2.446   1_545  S
Zr324       O327   2.386       .  S
Zr324       O329   2.399       .  S
Zr324       O330   2.388       .  S
Zr324      O1012   2.382   1_545  S
Zr325       O998   2.455   1_545  S
Zr325      O1004   2.472   1_545  S
Zr325       O326   2.391       .  S
Zr325       O328   2.394       .  S
Zr325       O331   2.398       .  S
Zr325      O1013   2.391   1_545  S
O326        H334   0.965       .  S
O328      Zr1006   2.360   1_545  S
O329      Zr1009   2.368   1_545  S
O329        H333   0.966       .  S
O330      Zr1006   2.352   1_545  S
O330        H335   0.966       .  S
O331      Zr1009   2.372   1_545  S
O348       Zr360   2.425   1_455  S
O348        C350   1.284       .  A
O349       Zr386   2.429       .  S
O349        C350   1.287       .  A
O351      Zr1779   2.398       .  S
O351        C353   1.281       .  A
O352       Zr387   2.446       .  S
O352        C353   1.289       .  A
C353        C450   1.466       .  S
O354       Zr363   2.394   1_455  S
O354        C356   1.280       .  A
O355       Zr386   2.466       .  S
O355        C356   1.294       .  A
C356        C439   1.471       .  S
O357      Zr1776   2.408       .  S
O357        C359   1.280       .  A
O358       Zr387   2.446       .  S
O358        C359   1.291       .  A
Zr360      O1773   2.408       .  S
Zr360       O361   2.434       .  S
Zr360      O1778   2.435       .  S
Zr360       O366   2.363   1_655  S
Zr360       O392   2.363   1_655  S
Zr360      O1783   2.371       .  S
Zr360      O1806   2.375       .  S
O361        H404   0.990       .  S
O362      Zr1776   2.435       .  S
O362       H1819   0.990       .  S
O362       H1823   0.990       .  S
Zr363      O1767   2.398       .  S
Zr363       O364   2.438       .  S
Zr363      O1781   2.435       .  S
Zr363       O366   2.362   1_655  S
Zr363       O391   2.355   1_655  S
Zr363      O1783   2.355       .  S
Zr363      O1809   2.354       .  S
O364        H408   0.990       .  S
O364       H1821   0.990       .  S
O365      Zr1779   2.435       .  S
O365       H1814   0.990       .  S
O366       Zr386   2.379       .  S
O367       Zr387   2.390       .  S
O367      Zr1776   2.371       .  S
O367      Zr1779   2.355       .  S
O367        H394   0.966       .  S
O368       Zr380   2.423       .  S
O368        C370   1.283       .  A
O369       Zr387   2.447       .  S
O369        C370   1.290       .  A
O371      Zr1799   2.416   1_455  S
O371        C373   1.284       .  A
O372       Zr386   2.425       .  S
O372        C373   1.286       .  A
C373        C423   1.456       .  S
O374       Zr383   2.404       .  S
O374        C376   1.281       .  A
O375       Zr387   2.444       .  S
O375        C376   1.290       .  A
C376        C432   1.461       .  S
O377      Zr1796   2.400   1_455  S
O377        C379   1.279       .  A
O378       Zr386   2.449       .  S
O378        C379   1.292       .  A
C379        C412   1.458       .  S
Zr380      O1793   2.400       .  S
Zr380       O381   2.438       .  S
Zr380       O382   2.435       .  S
Zr380       O388   2.364       .  S
Zr380       O390   2.364       .  S
Zr380      O1805   2.371       .  S
Zr380      O1808   2.374       .  S
O381        H401   0.990       .  S
O381        H406   0.990       .  S
O382        H402   0.990       .  S
Zr383      O1787   2.416       .  S
Zr383       O384   2.434       .  S
Zr383      O1801   2.436       .  S
Zr383       O388   2.363       .  S
Zr383       O393   2.365       .  S
Zr383      O1805   2.354       .  S
Zr383      O1807   2.356       .  S
O384       H1816   0.990       .  S
O385      Zr1799   2.436       .  S
O385       H1815   0.990       .  S
O385       H1825   0.990       .  S
Zr386       O389   2.383       .  S
Zr386       O391   2.384       .  S
Zr386       O392   2.397       .  S
Zr387       O388   2.391       .  S
Zr387       O390   2.394       .  S
Zr387       O393   2.387       .  S
O388        H396   0.966       .  S
O389      Zr1796   2.371   1_455  S
O389      Zr1799   2.354   1_455  S
O390      Zr1776   2.375       .  S
O391      Zr1799   2.356   1_455  S
O391        H395   0.966       .  S
O392      Zr1796   2.374   1_455  S
O392        H397   0.966       .  S
O393      Zr1779   2.354       .  S
H398       O1781   0.990   1_455  S
H399       O1801   0.990       .  S
H400       O1800   0.990       .  S
H403       O1778   0.990   1_455  S
H405       O1780   0.990       .  S
H407       O1778   0.990       .  S
H409       O1801   0.990       .  S
C410        C589   1.476       .  S
C410        C411   1.398       .  A
C410        C415   1.398       .  A
C411        C412   1.398       .  A
C411        H416   1.085       .  S
C412        C413   1.401       .  A
C413        C414   1.401       .  A
C413        H417   1.083       .  S
C414        C415   1.407       .  A
C415        H418   1.085       .  S
C419        C556   1.474       .  S
C419        C420   1.401       .  A
C419        C424   1.398       .  A
C420        C421   1.406       .  A
C420        H425   1.084       .  S
C421        C422   1.401       .  A
C422        C423   1.399       .  A
C422        H426   1.083       .  S
C423        C424   1.399       .  A
C424        H427   1.086       .  S
C428        C541   1.480       .  S
C428        C429   1.404       .  A
C428        C433   1.397       .  A
C429        C430   1.398       .  A
C429        H434   1.085       .  S
C430        C431   1.401       .  A
C431        C432   1.405       .  A
C431        H435   1.083       .  S
C432        C433   1.406       .  A
C433        H436   1.085       .  S
C437        C532   1.495       .  S
C437        C438   1.406       .  A
C437        C442   1.402       .  A
C438        C439   1.408       .  A
C438        H443   1.084       .  S
C439        C440   1.400       .  A
C440        C441   1.403       .  A
C440        H444   1.084       .  S
C441        C442   1.402       .  A
C442        H445   1.084       .  S
C446        C520   1.474       .  S
C446        C447   1.401       .  A
C446        C451   1.395       .  A
C447        C448   1.403       .  A
C447        H452   1.084       .  S
C448        C449   1.406       .  A
C449        C450   1.402       .  A
C449        H453   1.084       .  S
C450        C451   1.402       .  A
C451        H454   1.085       .  S
O455       Zr467   2.488       .  S
O455        C457   1.295       .  A
O456      Zr2617   2.362   1_455  S
O456        C457   1.273       .  A
C457        C640   1.492       .  S
O458       Zr470   2.478       .  S
O458        C460   1.294       .  A
O459      Zr1910   2.383   1_455  S
O459        C460   1.280       .  A
C460        C553   1.485       .  S
O461       Zr470   2.491       .  S
O461        C463   1.295       .  A
O462      Zr1909   2.353   1_455  S
O462        C463   1.271       .  A
C463        C649   1.494       .  S
O464       Zr467   2.445       .  S
O464        C466   1.287       .  A
O465      Zr2618   2.425   1_455  S
O465        C466   1.288       .  A
C466        C529   1.477       .  S
Zr467       O468   2.434       .  S
Zr467       O469   2.434       .  S
Zr467      O1181   2.363       .  S
Zr467      O1182   2.388       .  S
Zr467      O1913   2.388   1_455  S
Zr467      O1915   2.371   1_455  S
O468       H1219   0.990       .  S
O469        H510   0.990       .  S
O469        H514   0.990       .  S
Zr470       O471   2.436       .  S
Zr470       O472   2.436       .  S
Zr470       O474   2.386       .  S
Zr470       O473   2.379       .  S
Zr470      O1914   2.387   1_455  S
Zr470      O1916   2.387   1_455  S
O471        H512   0.990       .  S
O471        H515   0.990       .  S
O472        H505   0.990       .  S
O473      Zr1175   2.363   1_545  S
O473      Zr1909   2.361   1_455  S
O474      Zr1175   2.388   1_545  S
O474      Zr1910   2.384   1_455  S
O474        H501   0.966       .  S
O475       Zr487   2.446       .  S
O475        C477   1.288       .  A
O476       Zr494   2.407   1_565  S
O476       C1185   1.283       .  A
C477       O1184   1.283       .  A
C477        C517   1.491       .  S
O478       Zr490   2.469       .  S
O478        C480   1.290       .  A
O479       Zr493   2.366       .  S
O479        C480   1.276       .  A
C480        C625   1.471       .  S
O481       Zr490   2.438       .  S
O481        C483   1.285       .  A
O482       Zr494   2.437       .  S
O482        C483   1.290       .  A
C483        C544   1.489       .  S
O484       Zr487   2.455       .  S
O484        C486   1.288       .  A
O485      Zr1201   2.405       .  S
O485        C486   1.281       .  A
C486        C613   1.472       .  S
Zr487       O488   2.435       .  S
Zr487       O489   2.432       .  S
Zr487       O499   2.373       .  S
Zr487       O497   2.376       .  S
Zr487      O1203   2.377       .  S
Zr487      O1204   2.376       .  S
O488        H508   0.990       .  S
O488        H513   0.990       .  S
O489        H509   0.990       .  S
Zr490       O491   2.433       .  S
Zr490       O492   2.435       .  S
Zr490       O496   2.378       .  S
Zr490       O495   2.393       .  S
Zr490       O500   2.386       .  S
Zr490       O498   2.370       .  S
O491        H507   0.990       .  S
O492        H506   0.990       .  S
O492        H516   0.990       .  S
Zr493      O2580   2.362   1_545  S
Zr493      O1878   2.353       .  S
Zr493      O1193   2.405   1_545  S
Zr493       O496   2.352       .  S
Zr493       O498   2.367       .  S
Zr493      O1889   2.361       .  S
Zr493      O1207   2.355   1_545  S
Zr494      O1875   2.383       .  S
Zr494      O2589   2.425   1_545  S
Zr494       O495   2.372       .  S
Zr494       O500   2.378       .  S
Zr494      O1890   2.384       .  S
Zr494      O1205   2.368   1_545  S
O495      Zr1195   2.377   1_545  S
O495        H503   0.966       .  S
O496      Zr1195   2.376   1_545  S
O497      Zr1883   2.388       .  S
O497      Zr1202   2.368       .  S
O498      Zr1886   2.387       .  S
O498        H502   0.966       .  S
O499      Zr1883   2.371       .  S
O499      Zr1201   2.355       .  S
O499        H504   0.966       .  S
O500      Zr1886   2.387       .  S
H511       O1176   0.990       .  S
C517        C518   1.411       .  A
C517        C522   1.423       .  A
C518        C519   1.404       .  A
C518        H523   1.084       .  S
C519        C520   1.405       .  A
C519        C526   1.443       .  S
C520        C521   1.397       .  A
C521        C522   1.392       .  A
C521        H524   1.086       .  S
C522        C525   1.445       .  S
C525        N527   1.158       .  T
C526        N528   1.157       .  T
C529        C530   1.396       .  A
C529        C534   1.409       .  A
C530        C531   1.395       .  A
C530        H535   1.083       .  S
C531        C532   1.416       .  A
C531        C538   1.443       .  S
C532        C533   1.411       .  A
C533        C534   1.408       .  A
C533        H536   1.084       .  S
C534        C537   1.443       .  S
C537        N539   1.157       .  T
C538        N540   1.156       .  T
C541        C542   1.391       .  A
C541        C546   1.413       .  A
C542        C543   1.378       .  A
C542        H547   1.087       .  S
C543        C544   1.407       .  A
C543        C550   1.424       .  S
C544        C545   1.413       .  A
C545        C546   1.415       .  A
C545        H548   1.084       .  S
C546        C549   1.442       .  S
C549        N551   1.157       .  T
C550        N552   1.148       .  T
C553        C554   1.410       .  A
C553        C558   1.419       .  A
C554        C555   1.411       .  A
C554        H559   1.084       .  S
C555        C556   1.409       .  A
C555        C562   1.442       .  S
C556        C557   1.393       .  A
C557        C558   1.384       .  A
C557        H560   1.087       .  S
C558        C561   1.442       .  S
C561       N1979   1.155   1_455  T
C562        N564   1.157       .  T
N563       C1977   1.155       .  T
C565        C566   1.398       .  A
C565        C570   1.404       .  A
C566        C567   1.404       .  A
C566        H571   1.085       .  S
C567        C568   1.425       .  A
C567        C574   1.444       .  S
C568        C569   1.413       .  A
C569        C570   1.400       .  A
C569        H572   1.082       .  S
C570        C573   1.443       .  S
C573        N575   1.157       .  T
C574        N576   1.157       .  T
C577        C578   1.406       .  A
C577        C582   1.413       .  A
C578        C579   1.392       .  A
C578        H583   1.084       .  S
C579        C580   1.409       .  A
C579        C586   1.445       .  S
C580        C581   1.407       .  A
C581        C582   1.408       .  A
C581        H584   1.084       .  S
C582        C585   1.442       .  S
C585        N587   1.157       .  T
C586        N588   1.157       .  T
C589        C590   1.405       .  A
C589        C594   1.406       .  A
C590        C591   1.410       .  A
C590        H595   1.084       .  S
C591        C592   1.416       .  A
C591        C598   1.443       .  S
C592        C593   1.410       .  A
C593        C594   1.387       .  A
C593        H596   1.085       .  S
C594        C597   1.447       .  S
C597        N599   1.157       .  T
C598        N600   1.157       .  T
C601        C602   1.391       .  A
C601        C606   1.403       .  A
C602        C603   1.398       .  A
C602        H607   1.086       .  S
C603        C604   1.431       .  A
C603        C610   1.440       .  S
C604        C605   1.416       .  A
C605        C606   1.401       .  A
C605        H608   1.082       .  S
C606        C609   1.444       .  S
C609        N611   1.157       .  T
C610        N612   1.157       .  T
C613        C614   1.393       .  A
C613        C618   1.404       .  A
C614        C615   1.401       .  A
C614        H619   1.086       .  S
C615        C616   1.434       .  A
C615        C622   1.443       .  S
C616        C617   1.416       .  A
C617        C618   1.404       .  A
C617        H620   1.081       .  S
C618        C621   1.445       .  S
C621       N2039   1.157       .  T
C622        N624   1.158       .  T
N623       C2037   1.157       .  T
C625        C626   1.404       .  A
C625        C630   1.410       .  A
C626        C627   1.388       .  A
C626        H631   1.085       .  S
C627        C628   1.407       .  A
C627        C634   1.446       .  S
C628        C629   1.408       .  A
C629        C630   1.408       .  A
C629        H632   1.084       .  S
C630        C633   1.443       .  S
C633        N635   1.157       .  T
C634        N636   1.157       .  T
C637        C638   1.396       .  A
C637        C642   1.413       .  A
C638        C639   1.386       .  A
C638        H643   1.086       .  S
C639        C640   1.425       .  A
C639        C646   1.447       .  S
C640        C641   1.409       .  A
C641        C642   1.411       .  A
C641        H644   1.084       .  S
C642        C645   1.442       .  S
C645        N647   1.157       .  T
C646       N2064   1.157   1_455  T
N648       C2062   1.157       .  T
C649        C650   1.412       .  A
C649        C654   1.426       .  A
C650        C651   1.415       .  A
C650        H655   1.084       .  S
C651        C652   1.412       .  A
C651        C658   1.442       .  S
C652        C653   1.392       .  A
C653        C654   1.380       .  A
C653        H656   1.087       .  S
C654        C657   1.448       .  S
C657        N659   1.157   1_455  T
C658        N660   1.157       .  T
C661        C662   1.396       .  A
C661        C666   1.409       .  A
C662        C663   1.395       .  A
C662        H667   1.086       .  S
C663        C664   1.423       .  A
C663        C670   1.444       .  S
C664        C665   1.411       .  A
C665        C666   1.409       .  A
C665        H668   1.084       .  S
C666        C669   1.443       .  S
C669        N671   1.157       .  T
C670        N672   1.157       .  T
C673        C674   1.410       .  A
C673        C678   1.416       .  A
C674        C675   1.410       .  A
C674        H679   1.084       .  S
C675        C676   1.413       .  A
C675        C682   1.442       .  S
C676        C677   1.406       .  A
C677        C678   1.393       .  A
C677        H680   1.085       .  S
C678        C681   1.446       .  S
C681        N683   1.157       .  T
C682        N684   1.157       .  T
C685        C686   1.413       .  A
C685        C690   1.421       .  A
C686        C687   1.404       .  A
C686        H691   1.084       .  S
C687        C688   1.406       .  A
C687        C694   1.444       .  S
C688        C689   1.395       .  A
C689        C690   1.398       .  A
C689        H692   1.085       .  S
C690        C693   1.439       .  S
C693        N695   1.156       .  T
C694        N696   1.157       .  T
C697        C698   1.410       .  A
C697        C702   1.416       .  A
C698        C699   1.393       .  A
C698        H703   1.084       .  S
C699        C700   1.408       .  A
C699        C706   1.445       .  S
C700        C701   1.407       .  A
C701        C702   1.409       .  A
C701        H704   1.085       .  S
C702        C705   1.443       .  S
C705        N707   1.157       .  T
C706        N708   1.157       .  T
O709       Zr721   2.404       .  S
O709        C711   1.282       .  A
O710      Zr2163   2.487       .  S
O710        C711   1.299       .  A
C711        C773   1.489       .  S
O712       Zr724   2.425       .  S
O712        C714   1.284       .  A
O713       Zr748   2.483       .  S
O713        C714   1.298       .  A
C714        C900   1.486       .  S
O715       Zr724   2.407       .  S
O715        C717   1.282       .  A
O716      Zr2163   2.471       .  S
O716        C717   1.296       .  A
C717        C891   1.473       .  S
O718       Zr721   2.398       .  S
O718        C720   1.281       .  A
O719       Zr748   2.484       .  S
O719        C720   1.298       .  A
C720        C853   1.484       .  S
Zr721       O722   2.434       .  S
Zr721       O723   2.436       .  S
Zr721       O727   2.358       .  S
Zr721       O728   2.368       .  S
Zr721       O751   2.364       .  S
Zr721      O2169   2.365       .  S
O722        H765   0.990       .  S
O723        H764   0.990       .  S
O723        H768   0.990       .  S
Zr724       O725   2.437       .  S
Zr724       O726   2.437       .  S
Zr724       O728   2.364       .  S
Zr724       O727   2.367       .  S
Zr724      O2168   2.372       .  S
Zr724       O754   2.363       .  S
O725        H766   0.990       .  S
O725        H769   0.990       .  S
O726        H759   0.990       .  S
O727      Zr2163   2.389       .  S
O728       Zr748   2.395       .  S
O728        H755   0.966       .  S
O729       Zr741   2.420       .  S
O729        C731   1.285       .  A
O730      Zr2164   2.480   1_455  S
O730        C731   1.297       .  A
C731        C844   1.487       .  S
O732       Zr744   2.393       .  S
O732        C734   1.278       .  A
O733       Zr747   2.470   1_455  S
O733        C734   1.296       .  A
C734        C871   1.466       .  S
O735       Zr744   2.401       .  S
O735        C737   1.279       .  A
O736      Zr2164   2.471   1_455  S
O736        C737   1.296       .  A
C737        C880   1.468       .  S
O738       Zr741   2.421       .  S
O738        C740   1.286       .  A
O739       Zr747   2.485   1_455  S
O739        C740   1.298       .  A
C740        C862   1.493       .  S
Zr741       O742   2.441       .  S
Zr741       O743   2.433       .  S
Zr741       O749   2.366       .  S
Zr741       O750   2.355       .  S
Zr741       O753   2.365   1_455  S
Zr741      O2167   2.367   1_455  S
O742        H762   0.989       .  S
O742        H767   0.988       .  S
O743        H763   0.990       .  S
Zr744       O745   2.434       .  S
Zr744       O746   2.435       .  S
Zr744       O750   2.358       .  S
Zr744       O749   2.358       .  S
Zr744      O2170   2.362       .  S
Zr744       O752   2.365       .  S
O745        H761   0.990       .  S
O746        H760   0.990       .  S
O746        H770   0.990       .  S
Zr747      O2126   2.487       .  S
Zr747      O2132   2.471       .  S
Zr747      O2143   2.389       .  S
Zr747       O750   2.385   1_655  S
Zr747       O752   2.409   1_655  S
Zr747       O753   2.397       .  S
Zr748      O2146   2.480       .  S
Zr748      O2152   2.471       .  S
Zr748      O2165   2.398       .  S
Zr748       O751   2.401       .  S
Zr748       O754   2.397       .  S
O749      Zr2164   2.398   1_455  S
O749        H757   0.965       .  S
O751      Zr2157   2.367       .  S
O752      Zr2140   2.372   1_455  S
O752        H756   0.966       .  S
O753      Zr2137   2.365       .  S
O753        H758   0.966       .  S
O754      Zr2160   2.362       .  S
C771       C1405   1.499       .  S
C771        C772   1.406       .  A
C771        C776   1.397       .  A
C772        C773   1.418       .  A
C772        H777   1.083       .  S
C773        C774   1.412       .  A
C774        C775   1.413       .  A
C774        H778   1.082       .  S
C775        C788   1.479       .  S
C775        C776   1.395       .  A
C776        H779   1.085       .  S
O780       Zr792   2.458       .  S
O780        C782   1.291       .  A
O781        C782   1.282       .  A
C782        C889   1.473       .  S
O783       Zr795   2.469       .  S
O783        C785   1.295       .  A
O784        C785   1.284       .  A
C785        C864   1.489       .  S
O786       Zr795   2.464       .  S
O786        C788   1.295       .  A
O787        C788   1.280       .  A
O789       Zr792   2.459       .  S
O789        C791   1.291       .  A
O790        C791   1.284       .  A
C791        C873   1.473       .  S
Zr792       O793   2.433       .  S
Zr792       O794   2.436       .  S
Zr792       O798   2.375       .  S
Zr792       O799   2.379       .  S
Zr792       O822   2.375       .  S
O793        H836   0.990       .  S
O794        H835   0.990       .  S
O794        H839   0.990       .  S
Zr795       O796   2.434       .  S
Zr795       O797   2.435       .  S
Zr795       O799   2.368       .  S
Zr795       O798   2.372       .  S
O796        H837   0.990       .  S
O796        H840   0.990       .  S
O797        H830   0.990       .  S
O799        H826   0.966       .  S
O800       Zr812   2.476       .  S
O800        C802   1.294       .  A
O801       Zr819   2.396   1_565  S
O801        C802   1.281       .  A
C802        C882   1.471       .  S
O803       Zr815   2.454       .  S
O803        C805   1.293       .  A
O804       Zr818   2.414   1_565  S
O804        C805   1.281       .  A
C805        C855   1.478       .  S
O806       Zr815   2.450       .  S
O806        C808   1.291       .  A
O807       Zr819   2.432   1_565  S
O807        C808   1.286       .  A
C808        C846   1.486       .  S
O809       Zr812   2.472       .  S
O809        C811   1.294       .  A
O810       Zr818   2.407   1_565  S
O810        C811   1.282       .  A
C811        C898   1.478       .  S
Zr812       O813   2.435       .  S
Zr812       O814   2.435       .  S
Zr812       O820   2.380       .  S
Zr812       O821   2.381       .  S
Zr812       O824   2.382   1_565  S
O813        H833   0.990       .  S
O813        H838   0.990       .  S
O814        H834   0.990       .  S
Zr815       O816   2.434       .  S
Zr815       O817   2.436       .  S
Zr815       O821   2.370       .  S
Zr815       O820   2.370       .  S
Zr815       O825   2.376   1_565  S
Zr815       O823   2.367   1_565  S
O816        H832   0.990       .  S
O817        H831   0.990       .  S
O817        H841   0.990       .  S
Zr818       O821   2.382   1_545  S
Zr818       O823   2.384       .  S
Zr818       O824   2.390       .  S
Zr819       O820   2.388   1_545  S
Zr819       O825   2.381       .  S
O820        H828   0.966       .  S
O823        H827   0.966       .  S
C842       C1393   1.503       .  S
C842        C843   1.407       .  A
C842        C847   1.402       .  A
C843        C844   1.412       .  A
C843        H848   1.082       .  S
C844        C845   1.412       .  A
C845        C846   1.414       .  A
C845        H849   1.084       .  S
C846        C847   1.404       .  A
C847        H850   1.083       .  S
C851       C1384   1.496       .  S
C851        C852   1.405       .  A
C851        C856   1.397       .  A
C852        C853   1.418       .  A
C852        H857   1.084       .  S
C853        C854   1.411       .  A
C854        C855   1.410       .  A
C854        H858   1.084       .  S
C855        C856   1.397       .  A
C856        H859   1.085       .  S
C860       C1369   1.481       .  S
C860        C861   1.400       .  A
C860        C865   1.396       .  A
C861        C862   1.411       .  A
C861        H866   1.085       .  S
C862        C863   1.417       .  A
C863        C864   1.421       .  A
C863        H867   1.082       .  S
C864        C865   1.403       .  A
C865        H868   1.085       .  S
C869       C1360   1.479       .  S
C869        C870   1.399       .  A
C869        C874   1.404       .  A
C870        C871   1.393       .  A
C870        H875   1.086       .  S
C871        C872   1.401       .  A
C872        C873   1.413       .  A
C872        H876   1.083       .  S
C873        C874   1.410       .  A
C874        H877   1.084       .  S
C878       C1345   1.485       .  S
C878        C879   1.406       .  A
C878        C883   1.406       .  A
C879        C880   1.395       .  A
C879        H884   1.085       .  S
C880        C881   1.400       .  A
C881        C882   1.410       .  A
C881        H885   1.084       .  S
C882        C883   1.406       .  A
C883        H886   1.084       .  S
C887       C1336   1.477       .  S
C887        C888   1.400       .  A
C887        C892   1.399       .  A
C888        C889   1.397       .  A
C888        H893   1.085       .  S
C889        C890   1.412       .  A
C890        C891   1.409       .  A
C890        H894   1.082       .  S
C891        C892   1.405       .  A
C892        H895   1.085       .  S
C896       C1324   1.523       .  S
C896        C897   1.411       .  A
C896        C901   1.424       .  A
C897        C898   1.400       .  A
C897        H902   1.075       .  S
C898        C899   1.407       .  A
C899        C900   1.402       .  A
C899        H903   1.084       .  S
C900        C901   1.410       .  A
C901        H904   1.080       .  S
O905       Zr917   2.463       .  S
O905        C907   1.292       .  A
O906       Zr943   2.407       .  S
O906        C907   1.284       .  A
C907       C1381   1.490       .  S
O908       Zr920   2.444   1_554  S
O908        C910   1.286       .  A
O909       Zr944   2.410       .  S
O909        C910   1.283       .  A
C910       C1309   1.465       .  S
O911       Zr920   2.446       .  S
O911        C913   1.288       .  A
O912       Zr943   2.420       .  S
O912        C913   1.287       .  A
C913       C1408   1.482       .  S
O914       Zr917   2.474   1_554  S
O914        C916   1.294       .  A
O915       Zr944   2.388       .  S
O915        C916   1.281       .  A
C916       C1285   1.486       .  S
Zr917       O918   2.433       .  S
Zr917       O919   2.435       .  S
Zr917       O923   2.377       .  S
Zr917       O924   2.371   1_556  S
Zr917       O947   2.376   1_556  S
Zr917       O949   2.383       .  S
O918        H961   0.990       .  S
O919        H960   0.990       .  S
O919        H964   0.990       .  S
Zr920       O921   2.436       .  S
Zr920       O922   2.436       .  S
Zr920       O924   2.375   1_556  S
Zr920       O923   2.372       .  S
Zr920       O948   2.379       .  S
Zr920       O950   2.379   1_556  S
O921        H962   0.990   1_556  S
O921        H965   0.990       .  S
O922        H955   0.990       .  S
O923       Zr943   2.373       .  S
O924       Zr944   2.374       .  S
O924        H951   0.966       .  S
O925       Zr937   2.449   1_554  S
O925        C927   1.287       .  A
O926       Zr944   2.426       .  S
O926        C927   1.286       .  A
C927       C1273   1.475       .  S
O928       Zr940   2.472       .  S
O928        C930   1.294       .  A
O929       Zr943   2.405       .  S
O929        C930   1.283       .  A
C930       C1372   1.498       .  S
O931       Zr940   2.475   1_554  S
O931        C933   1.293       .  A
O932       Zr944   2.383       .  S
O932        C933   1.281       .  A
C933       C1300   1.491       .  S
O934       Zr937   2.435       .  S
O934        C936   1.285       .  A
O935       Zr943   2.427       .  S
O935        C936   1.287       .  A
C936       C1396   1.472       .  S
Zr937       O938   2.436       .  S
Zr937       O939   2.433       .  S
Zr937       O945   2.370   1_556  S
Zr937       O946   2.376       .  S
Zr937       O949   2.378       .  S
Zr937       O947   2.373   1_556  S
O938        H958   0.990   1_556  S
O938        H963   0.990   1_556  S
O939        H959   0.990   1_556  S
Zr940       O941   2.434       .  S
Zr940       O942   2.434       .  S
Zr940       O946   2.379       .  S
Zr940       O945   2.379   1_556  S
Zr940       O950   2.381   1_556  S
Zr940       O948   2.380       .  S
O941        H957   0.990       .  S
O942        H956   0.990   1_556  S
O942        H966   0.990       .  S
Zr943       O946   2.373       .  S
Zr943       O948   2.379       .  S
Zr943       O949   2.380       .  S
Zr944       O945   2.373       .  S
Zr944       O947   2.369       .  S
Zr944       O950   2.375       .  S
O945        H953   0.966       .  S
O948        H952   0.966       .  S
O949        H954   0.966       .  S
C967       C1276   1.510       .  S
C967        C968   1.412       .  A
C967        C972   1.407       .  A
C968        C969   1.412       .  A
C968        H973   1.082       .  S
C969        C996   1.477       .  S
C969        C970   1.399       .  A
C970        C971   1.401       .  A
C970        H974   1.084       .  S
C971       C1058   1.459       .  S
C971        C972   1.399       .  A
C972        H975   1.081       .  S
C976       C1312   1.515       .  S
C976        C977   1.416       .  A
C976        C981   1.409       .  A
C977        C978   1.401       .  A
C977        H982   1.081       .  S
C978       C1078   1.467       .  S
C978        C979   1.400       .  A
C979        C980   1.399       .  A
C979        H983   1.083       .  S
C980       C1016   1.467       .  S
C980        C981   1.402       .  A
C981        H984   1.074       .  S
C985       C1288   1.482       .  S
C985        C986   1.396       .  A
C985        C990   1.402       .  A
C986        C987   1.399       .  A
C986        H991   1.085       .  S
C987       C1067   1.457       .  S
C987        C988   1.405       .  A
C988        C989   1.402       .  A
C988        H992   1.084       .  S
C989       C1005   1.474       .  S
C989        C990   1.411       .  A
C990        H993   1.085       .  S
O994      Zr1006   2.398       .  S
O994        C996   1.280       .  A
O995        C996   1.295       .  A
O997      Zr1009   2.411       .  S
O997        C999   1.281       .  A
O998        C999   1.293       .  A
C999       C1156   1.462       .  S
O1000     Zr1009   2.409       .  S
O1000      C1002   1.281       .  A
O1001      C1002   1.291       .  A
C1002      C1149   1.458       .  S
O1003     Zr1006   2.388       .  S
O1003      C1005   1.279       .  A
O1004      C1005   1.295       .  A
Zr1006     O1007   2.434       .  S
Zr1006     O1008   2.437       .  S
Zr1006     O1012   2.356       .  S
Zr1006     O1013   2.358       .  S
O1007      H1050   0.990       .  S
O1008      H1049   0.990       .  S
O1008      H1053   0.990       .  S
Zr1009     O1010   2.437       .  S
Zr1009     O1011   2.436       .  S
Zr1009     O1013   2.368       .  S
Zr1009     O1012   2.368       .  S
O1010      H1051   0.990       .  S
O1010      H1054   0.990       .  S
O1011      H1044   0.990       .  S
O1013      H1040   0.966       .  S
O1014     Zr1026   2.421       .  S
O1014      C1016   1.285       .  A
O1015     Zr1033   2.442       .  S
O1015      C1016   1.289       .  A
O1017     Zr1029   2.390       .  S
O1017      C1019   1.277       .  A
O1018     Zr1032   2.458       .  S
O1018      C1019   1.293       .  A
C1019      C1129   1.460       .  S
O1020     Zr1029   2.392       .  S
O1020      C1022   1.278       .  A
O1021     Zr1033   2.477       .  S
O1021      C1022   1.297       .  A
C1022      C1138   1.466       .  S
O1023     Zr1026   2.405       .  S
O1023      C1025   1.281       .  A
O1024     Zr1032   2.446       .  S
O1024      C1025   1.290       .  A
C1025      C1122   1.464       .  S
Zr1026     O1027   2.436       .  S
Zr1026     O1028   2.427       .  S
Zr1026     O1034   2.346       .  S
Zr1026     O1035   2.360       .  S
Zr1026     O1038   2.361       .  S
Zr1026     O1036   2.363       .  S
O1027      H1047   0.990       .  S
O1027      H1052   0.990       .  S
O1028      H1048   0.990       .  S
Zr1029     O1030   2.434       .  S
Zr1029     O1031   2.435       .  S
Zr1029     O1035   2.368       .  S
Zr1029     O1034   2.367       .  S
Zr1029     O1039   2.362       .  S
Zr1029     O1037   2.360       .  S
O1030      H1046   0.990       .  S
O1031      H1045   0.990       .  S
O1031      H1055   0.990       .  S
Zr1032     O1035   2.386       .  S
Zr1032     O1037   2.399       .  S
Zr1032     O1038   2.388       .  S
Zr1033     O1034   2.391       .  S
Zr1033     O1036   2.394       .  S
Zr1033     O1039   2.398       .  S
O1034      H1042   0.965       .  S
O1037      H1041   0.966       .  S
O1038      H1043   0.966       .  S
O1056     Zr1068   2.425   1_455  S
O1056      C1058   1.284       .  A
O1057     Zr1094   2.429       .  S
O1057      C1058   1.287       .  A
O1059     Zr2487   2.398       .  S
O1059      C1061   1.281       .  A
O1060     Zr1095   2.446       .  S
O1060      C1061   1.289       .  A
C1061      C1158   1.466       .  S
O1062     Zr1071   2.394   1_455  S
O1062      C1064   1.280       .  A
O1063     Zr1094   2.466       .  S
O1063      C1064   1.294       .  A
C1064      C1147   1.471       .  S
O1065     Zr2484   2.408       .  S
O1065      C1067   1.280       .  A
O1066     Zr1095   2.446       .  S
O1066      C1067   1.291       .  A
Zr1068     O2481   2.408       .  S
Zr1068     O1069   2.434       .  S
Zr1068     O2486   2.435       .  S
Zr1068     O1074   2.363   1_655  S
Zr1068     O2491   2.371       .  S
Zr1068     O2514   2.375       .  S
Zr1068     O1100   2.363   1_655  S
O1069      H1112   0.990       .  S
O1070     Zr2484   2.435       .  S
O1070      H2527   0.990       .  S
O1070      H2531   0.990       .  S
Zr1071     O2475   2.398       .  S
Zr1071     O1072   2.438       .  S
Zr1071     O2489   2.435       .  S
Zr1071     O2491   2.355       .  S
Zr1071     O1074   2.362   1_655  S
Zr1071     O1099   2.355   1_655  S
Zr1071     O2517   2.354       .  S
O1072      H2529   0.990       .  S
O1072      H1116   0.990       .  S
O1073     Zr2487   2.435       .  S
O1073      H2522   0.990       .  S
O1074     Zr1094   2.379       .  S
O1075     Zr2484   2.371       .  S
O1075     Zr2487   2.355       .  S
O1075     Zr1095   2.390       .  S
O1075      H1102   0.966       .  S
O1076     Zr1088   2.423       .  S
O1076      C1078   1.283       .  A
O1077     Zr1095   2.447       .  S
O1077      C1078   1.290       .  A
O1079     Zr2507   2.416   1_455  S
O1079      C1081   1.284       .  A
O1080     Zr1094   2.425       .  S
O1080      C1081   1.286       .  A
C1081      C1131   1.456       .  S
O1082     Zr1091   2.404       .  S
O1082      C1084   1.281       .  A
O1083     Zr1095   2.444       .  S
O1083      C1084   1.290       .  A
C1084      C1140   1.461       .  S
O1085     Zr2504   2.400   1_455  S
O1085      C1087   1.279       .  A
O1086     Zr1094   2.449       .  S
O1086      C1087   1.292       .  A
C1087      C1120   1.458       .  S
Zr1088     O2501   2.400       .  S
Zr1088     O1089   2.438       .  S
Zr1088     O1090   2.435       .  S
Zr1088     O1096   2.364       .  S
Zr1088     O2513   2.371       .  S
Zr1088     O2516   2.374       .  S
Zr1088     O1098   2.364       .  S
O1089      H1109   0.990       .  S
O1089      H1114   0.990       .  S
O1090      H1110   0.990       .  S
Zr1091     O2495   2.416       .  S
Zr1091     O1092   2.434       .  S
Zr1091     O2509   2.436       .  S
Zr1091     O2513   2.354       .  S
Zr1091     O1096   2.363       .  S
Zr1091     O1101   2.365       .  S
Zr1091     O2515   2.356       .  S
O1092      H2524   0.990       .  S
O1093     Zr2507   2.436       .  S
O1093      H2523   0.990       .  S
O1093      H2533   0.990       .  S
Zr1094     O1097   2.383       .  S
Zr1094     O1099   2.384       .  S
Zr1094     O1100   2.397       .  S
Zr1095     O1096   2.391       .  S
Zr1095     O1098   2.394       .  S
Zr1095     O1101   2.387       .  S
O1096      H1104   0.966       .  S
O1097     Zr2504   2.371   1_455  S
O1097     Zr2507   2.354   1_455  S
O1098     Zr2484   2.375       .  S
O1099     Zr2507   2.356   1_455  S
O1099      H1103   0.966       .  S
O1100     Zr2504   2.374   1_455  S
O1100      H1105   0.966       .  S
O1101     Zr2487   2.354       .  S
H1106      O2489   0.990   1_455  S
H1107      O2509   0.990       .  S
H1108      O2508   0.990       .  S
H1111      O2486   0.990   1_455  S
H1113      O2488   0.990       .  S
H1115      O2486   0.990       .  S
H1117      O2509   0.990       .  S
C1118      C1297   1.476       .  S
C1118      C1119   1.398       .  A
C1118      C1123   1.398       .  A
C1119      C1120   1.398       .  A
C1119      H1124   1.085       .  S
C1120      C1121   1.401       .  A
C1121      C1122   1.401       .  A
C1121      H1125   1.083       .  S
C1122      C1123   1.407       .  A
C1123      H1126   1.085       .  S
C1127      C1264   1.474       .  S
C1127      C1128   1.401       .  A
C1127      C1132   1.398       .  A
C1128      C1129   1.406       .  A
C1128      H1133   1.084       .  S
C1129      C1130   1.401       .  A
C1130      C1131   1.399       .  A
C1130      H1134   1.083       .  S
C1131      C1132   1.399       .  A
C1132      H1135   1.086       .  S
C1136      C1249   1.480       .  S
C1136      C1137   1.404       .  A
C1136      C1141   1.397       .  A
C1137      C1138   1.398       .  A
C1137      H1142   1.085       .  S
C1138      C1139   1.401       .  A
C1139      C1140   1.405       .  A
C1139      H1143   1.083       .  S
C1140      C1141   1.406       .  A
C1141      H1144   1.085       .  S
C1145      C1240   1.495       .  S
C1145      C1146   1.406       .  A
C1145      C1150   1.402       .  A
C1146      C1147   1.408       .  A
C1146      H1151   1.084       .  S
C1147      C1148   1.400       .  A
C1148      C1149   1.403       .  A
C1148      H1152   1.084       .  S
C1149      C1150   1.402       .  A
C1150      H1153   1.084       .  S
C1154      C1228   1.474       .  S
C1154      C1155   1.401       .  A
C1154      C1159   1.395       .  A
C1155      C1156   1.403       .  A
C1155      H1160   1.084       .  S
C1156      C1157   1.406       .  A
C1157      C1158   1.402       .  A
C1157      H1161   1.084       .  S
C1158      C1159   1.402       .  A
C1159      H1162   1.085       .  S
O1163     Zr1175   2.488       .  S
O1163      C1165   1.295       .  A
O1164     Zr1909   2.362   1_465  S
O1164      C1165   1.273       .  A
C1165      C1348   1.492       .  S
O1166     Zr1178   2.478       .  S
O1166      C1168   1.294       .  A
O1167     Zr2618   2.383   1_455  S
O1167      C1168   1.280       .  A
C1168      C1261   1.485       .  S
O1169     Zr1178   2.491       .  S
O1169      C1171   1.295       .  A
O1170     Zr2617   2.353   1_455  S
O1170      C1171   1.271       .  A
C1171      C1357   1.494       .  S
O1172     Zr1175   2.445       .  S
O1172      C1174   1.287       .  A
O1173     Zr1910   2.425   1_465  S
O1173      C1174   1.288       .  A
C1174      C1237   1.477       .  S
Zr1175     O1176   2.434       .  S
Zr1175     O1177   2.434       .  S
Zr1175     O2621   2.388   1_455  S
Zr1175     O2623   2.371   1_455  S
O1177      H1218   0.990       .  S
O1177      H1222   0.990       .  S
Zr1178     O1179   2.436       .  S
Zr1178     O1180   2.436       .  S
Zr1178     O1182   2.386       .  S
Zr1178     O1181   2.379       .  S
Zr1178     O2622   2.387   1_455  S
Zr1178     O2624   2.387   1_455  S
O1179      H1220   0.990       .  S
O1179      H1223   0.990       .  S
O1180      H1213   0.990       .  S
O1181     Zr2617   2.361   1_455  S
O1182     Zr2618   2.384   1_455  S
O1182      H1209   0.966       .  S
O1183     Zr1195   2.446       .  S
O1183      C1185   1.288       .  A
O1184     Zr1202   2.407       .  S
C1185      C1225   1.491       .  S
O1186     Zr1198   2.469       .  S
O1186      C1188   1.290       .  A
O1187     Zr1201   2.366       .  S
O1187      C1188   1.276       .  A
C1188      C1333   1.471       .  S
O1189     Zr1198   2.438       .  S
O1189      C1191   1.285       .  A
O1190     Zr1202   2.437       .  S
O1190      C1191   1.290       .  A
C1191      C1252   1.489       .  S
O1192     Zr1195   2.455       .  S
O1192      C1194   1.288       .  A
O1193      C1194   1.281       .  A
C1194      C1321   1.472       .  S
Zr1195     O1196   2.435       .  S
Zr1195     O1197   2.432       .  S
Zr1195     O1207   2.373       .  S
Zr1195     O1205   2.376       .  S
O1196      H1216   0.990       .  S
O1196      H1221   0.990       .  S
O1197      H1217   0.990       .  S
Zr1198     O1199   2.433       .  S
Zr1198     O1200   2.435       .  S
Zr1198     O1204   2.378       .  S
Zr1198     O1203   2.393       .  S
Zr1198     O1208   2.386       .  S
Zr1198     O1206   2.370       .  S
O1199      H1215   0.990       .  S
O1200      H1214   0.990       .  S
O1200      H1224   0.990       .  S
Zr1201     O1872   2.362       .  S
Zr1201     O2586   2.353       .  S
Zr1201     O2597   2.361       .  S
Zr1201     O1204   2.352       .  S
Zr1201     O1206   2.367       .  S
Zr1202     O2583   2.383       .  S
Zr1202     O1881   2.425       .  S
Zr1202     O2598   2.384       .  S
Zr1202     O1203   2.372       .  S
Zr1202     O1208   2.378       .  S
O1203      H1211   0.966       .  S
O1205     Zr2591   2.388       .  S
O1206     Zr2594   2.387       .  S
O1206      H1210   0.966       .  S
O1207     Zr2591   2.371       .  S
O1207      H1212   0.966       .  S
O1208     Zr2594   2.387       .  S
C1225      C1226   1.411       .  A
C1225      C1230   1.423       .  A
C1226      C1227   1.404       .  A
C1226      H1231   1.084       .  S
C1227      C1228   1.405       .  A
C1227      C1234   1.443       .  S
C1228      C1229   1.397       .  A
C1229      C1230   1.392       .  A
C1229      H1232   1.086       .  S
C1230      C1233   1.445       .  S
C1233      N1235   1.158       .  T
C1234      N1236   1.157       .  T
C1237      C1238   1.396       .  A
C1237      C1242   1.409       .  A
C1238      C1239   1.395       .  A
C1238      H1243   1.083       .  S
C1239      C1240   1.416       .  A
C1239      C1246   1.443       .  S
C1240      C1241   1.411       .  A
C1241      C1242   1.408       .  A
C1241      H1244   1.084       .  S
C1242      C1245   1.443       .  S
C1245      N1247   1.157       .  T
C1246      N1248   1.156       .  T
C1249      C1250   1.391       .  A
C1249      C1254   1.413       .  A
C1250      C1251   1.378       .  A
C1250      H1255   1.087       .  S
C1251      C1252   1.407       .  A
C1251      C1258   1.424       .  S
C1252      C1253   1.413       .  A
C1253      C1254   1.415       .  A
C1253      H1256   1.084       .  S
C1254      C1257   1.442       .  S
C1257      N1259   1.157       .  T
C1258      N1260   1.148       .  T
C1261      C1262   1.410       .  A
C1261      C1266   1.419       .  A
C1262      C1263   1.411       .  A
C1262      H1267   1.084       .  S
C1263      C1264   1.409       .  A
C1263      C1270   1.442       .  S
C1264      C1265   1.393       .  A
C1265      C1266   1.384       .  A
C1265      H1268   1.087       .  S
C1266      C1269   1.442       .  S
C1269      N2687   1.155   1_455  T
C1270      N1272   1.157       .  T
N1271      C2685   1.155       .  T
C1273      C1274   1.398       .  A
C1273      C1278   1.404       .  A
C1274      C1275   1.404       .  A
C1274      H1279   1.085       .  S
C1275      C1276   1.425       .  A
C1275      C1282   1.444       .  S
C1276      C1277   1.413       .  A
C1277      C1278   1.400       .  A
C1277      H1280   1.082       .  S
C1278      C1281   1.443       .  S
C1281      N1283   1.157       .  T
C1282      N1284   1.157       .  T
C1285      C1286   1.406       .  A
C1285      C1290   1.413       .  A
C1286      C1287   1.392       .  A
C1286      H1291   1.084       .  S
C1287      C1288   1.409       .  A
C1287      C1294   1.445       .  S
C1288      C1289   1.407       .  A
C1289      C1290   1.408       .  A
C1289      H1292   1.084       .  S
C1290      C1293   1.442       .  S
C1293      N1295   1.157       .  T
C1294      N1296   1.157       .  T
C1297      C1298   1.405       .  A
C1297      C1302   1.406       .  A
C1298      C1299   1.410       .  A
C1298      H1303   1.084       .  S
C1299      C1300   1.416       .  A
C1299      C1306   1.443       .  S
C1300      C1301   1.410       .  A
C1301      C1302   1.387       .  A
C1301      H1304   1.085       .  S
C1302      C1305   1.447       .  S
C1305      N1307   1.157       .  T
C1306      N1308   1.157       .  T
C1309      C1310   1.391       .  A
C1309      C1314   1.403       .  A
C1310      C1311   1.398       .  A
C1310      H1315   1.086       .  S
C1311      C1312   1.431       .  A
C1311      C1318   1.440       .  S
C1312      C1313   1.416       .  A
C1313      C1314   1.401       .  A
C1313      H1316   1.082       .  S
C1314      C1317   1.444       .  S
C1317      N1319   1.157       .  T
C1318      N1320   1.157       .  T
C1321      C1322   1.393       .  A
C1321      C1326   1.404       .  A
C1322      C1323   1.401       .  A
C1322      H1327   1.086       .  S
C1323      C1324   1.434       .  A
C1323      C1330   1.443       .  S
C1324      C1325   1.416       .  A
C1325      C1326   1.404       .  A
C1325      H1328   1.081       .  S
C1326      C1329   1.445       .  S
C1329      N2747   1.157       .  T
C1330      N1332   1.158       .  T
N1331      C2745   1.157       .  T
C1333      C1334   1.404       .  A
C1333      C1338   1.410       .  A
C1334      C1335   1.388       .  A
C1334      H1339   1.085       .  S
C1335      C1336   1.407       .  A
C1335      C1342   1.446       .  S
C1336      C1337   1.408       .  A
C1337      C1338   1.408       .  A
C1337      H1340   1.084       .  S
C1338      C1341   1.443       .  S
C1341      N1343   1.157       .  T
C1342      N1344   1.157       .  T
C1345      C1346   1.396       .  A
C1345      C1350   1.413       .  A
C1346      C1347   1.386       .  A
C1346      H1351   1.086       .  S
C1347      C1348   1.425       .  A
C1347      C1354   1.447       .  S
C1348      C1349   1.409       .  A
C1349      C1350   1.411       .  A
C1349      H1352   1.084       .  S
C1350      C1353   1.442       .  S
C1353      N1355   1.157       .  T
C1354      N2772   1.157   1_455  T
N1356      C2770   1.157       .  T
C1357      C1358   1.412       .  A
C1357      C1362   1.426       .  A
C1358      C1359   1.415       .  A
C1358      H1363   1.084       .  S
C1359      C1360   1.412       .  A
C1359      C1366   1.442       .  S
C1360      C1361   1.392       .  A
C1361      C1362   1.380       .  A
C1361      H1364   1.087       .  S
C1362      C1365   1.448       .  S
C1365      N1367   1.157   1_455  T
C1366      N1368   1.157       .  T
C1369      C1370   1.396       .  A
C1369      C1374   1.409       .  A
C1370      C1371   1.395       .  A
C1370      H1375   1.086       .  S
C1371      C1372   1.423       .  A
C1371      C1378   1.444       .  S
C1372      C1373   1.411       .  A
C1373      C1374   1.409       .  A
C1373      H1376   1.084       .  S
C1374      C1377   1.443       .  S
C1377      N1379   1.157       .  T
C1378      N1380   1.157       .  T
C1381      C1382   1.410       .  A
C1381      C1386   1.416       .  A
C1382      C1383   1.410       .  A
C1382      H1387   1.084       .  S
C1383      C1384   1.413       .  A
C1383      C1390   1.442       .  S
C1384      C1385   1.406       .  A
C1385      C1386   1.393       .  A
C1385      H1388   1.085       .  S
C1386      C1389   1.446       .  S
C1389      N1391   1.157       .  T
C1390      N1392   1.157       .  T
C1393      C1394   1.413       .  A
C1393      C1398   1.421       .  A
C1394      C1395   1.404       .  A
C1394      H1399   1.084       .  S
C1395      C1396   1.406       .  A
C1395      C1402   1.444       .  S
C1396      C1397   1.395       .  A
C1397      C1398   1.398       .  A
C1397      H1400   1.085       .  S
C1398      C1401   1.439       .  S
C1401      N1403   1.156       .  T
C1402      N1404   1.157       .  T
C1405      C1406   1.410       .  A
C1405      C1410   1.416       .  A
C1406      C1407   1.393       .  A
C1406      H1411   1.084       .  S
C1407      C1408   1.408       .  A
C1407      C1414   1.445       .  S
C1408      C1409   1.407       .  A
C1409      C1410   1.409       .  A
C1409      H1412   1.085       .  S
C1410      C1413   1.443       .  S
C1413      N1415   1.157       .  T
C1414      N1416   1.157       .  T
O1417     Zr1429   2.404       .  S
O1417      C1419   1.282       .  A
O1418      C1419   1.299       .  A
C1419      C1481   1.489       .  S
O1420     Zr1432   2.425       .  S
O1420      C1422   1.284       .  A
O1421     Zr1456   2.483       .  S
O1421      C1422   1.298       .  A
C1422      C1608   1.486       .  S
O1423     Zr1432   2.407       .  S
O1423      C1425   1.282       .  A
O1424      C1425   1.296       .  A
C1425      C1599   1.473       .  S
O1426     Zr1429   2.398       .  S
O1426      C1428   1.281       .  A
O1427     Zr1456   2.484       .  S
O1427      C1428   1.298       .  A
C1428      C1561   1.484       .  S
Zr1429     O1430   2.434       .  S
Zr1429     O1431   2.436       .  S
Zr1429     O1435   2.358       .  S
Zr1429     O1436   2.368       .  S
Zr1429     O1459   2.364       .  S
O1430      H1473   0.990       .  S
O1431      H1472   0.990       .  S
O1431      H1476   0.990       .  S
Zr1432     O1433   2.437       .  S
Zr1432     O1434   2.437       .  S
Zr1432     O1436   2.364       .  S
Zr1432     O1435   2.367       .  S
Zr1432     O1462   2.363   1_655  S
O1433      H1474   0.990       .  S
O1433      H1477   0.990       .  S
O1434      H1467   0.990       .  S
O1436     Zr1456   2.395       .  S
O1436      H1463   0.966       .  S
O1437     Zr1449   2.420       .  S
O1437      C1439   1.285       .  A
O1438      C1439   1.297       .  A
C1439      C1552   1.487       .  S
O1440     Zr1452   2.393       .  S
O1440      C1442   1.278       .  A
O1441     Zr1455   2.470       .  S
O1441      C1442   1.296       .  A
C1442      C1579   1.466       .  S
O1443     Zr1452   2.401       .  S
O1443      C1445   1.279       .  A
O1444      C1445   1.296       .  A
C1445      C1588   1.468       .  S
O1446     Zr1449   2.421       .  S
O1446      C1448   1.286       .  A
O1447     Zr1455   2.485       .  S
O1447      C1448   1.298       .  A
C1448      C1570   1.493       .  S
Zr1449     O1450   2.441       .  S
Zr1449     O1451   2.433       .  S
Zr1449     O1457   2.366       .  S
Zr1449     O1458   2.355       .  S
Zr1449     O1461   2.365       .  S
O1450      H1470   0.989       .  S
O1450      H1475   0.988       .  S
O1451      H1471   0.990       .  S
Zr1452     O1453   2.434       .  S
Zr1452     O1454   2.435       .  S
Zr1452     O1458   2.358       .  S
Zr1452     O1457   2.358       .  S
Zr1452     O1460   2.365       .  S
O1453      H1469   0.990       .  S
O1454      H1468   0.990       .  S
O1454      H1478   0.990       .  S
Zr1455     O1458   2.385       .  S
Zr1455     O1460   2.409       .  S
Zr1455     O1461   2.397       .  S
Zr1456     O1459   2.401       .  S
Zr1456     O1462   2.397   1_655  S
O1457      H1465   0.965       .  S
O1460      H1464   0.966       .  S
O1461      H1466   0.966       .  S
C1479      C2113   1.499       .  S
C1479      C1480   1.406       .  A
C1479      C1484   1.397       .  A
C1480      C1481   1.418       .  A
C1480      H1485   1.083       .  S
C1481      C1482   1.412       .  A
C1482      C1483   1.413       .  A
C1482      H1486   1.082       .  S
C1483      C1496   1.479       .  S
C1483      C1484   1.395       .  A
C1484      H1487   1.085       .  S
O1488     Zr1500   2.458       .  S
O1488      C1490   1.291       .  A
O1489     Zr2234   2.412       .  S
O1489      C1490   1.282       .  A
C1490      C1597   1.473       .  S
O1491     Zr1503   2.469       .  S
O1491      C1493   1.295       .  A
O1492     Zr2235   2.424       .  S
O1492      C1493   1.284       .  A
C1493      C1572   1.489       .  S
O1494     Zr1503   2.464       .  S
O1494      C1496   1.295       .  A
O1495     Zr2234   2.408       .  S
O1495      C1496   1.280       .  A
O1497     Zr1500   2.459       .  S
O1497      C1499   1.291       .  A
O1498     Zr2235   2.415       .  S
O1498      C1499   1.284       .  A
C1499      C1581   1.473       .  S
Zr1500     O1501   2.433       .  S
Zr1500     O1502   2.436       .  S
Zr1500     O1506   2.375       .  S
Zr1500     O1507   2.379       .  S
Zr1500     O1530   2.375       .  S
Zr1500     O2240   2.378       .  S
O1501      H1544   0.990       .  S
O1502      H1543   0.990       .  S
O1502      H1547   0.990       .  S
Zr1503     O1504   2.434       .  S
Zr1503     O1505   2.435       .  S
Zr1503     O1507   2.368       .  S
Zr1503     O1506   2.372       .  S
Zr1503     O2239   2.367       .  S
Zr1503     O2241   2.373       .  S
O1504      H1545   0.990       .  S
O1504      H1548   0.990       .  S
O1505      H1538   0.990       .  S
O1506     Zr2234   2.381       .  S
O1507     Zr2235   2.384       .  S
O1507      H1534   0.966       .  S
O1508     Zr1520   2.476       .  S
O1508      C1510   1.294       .  A
O1509     Zr1527   2.396       .  S
O1509      C1510   1.281       .  A
C1510      C1590   1.471       .  S
O1511     Zr1523   2.454       .  S
O1511      C1513   1.293       .  A
O1512     Zr1526   2.414       .  S
O1512      C1513   1.281       .  A
C1513      C1563   1.478       .  S
O1514     Zr1523   2.450       .  S
O1514      C1516   1.291       .  A
O1515     Zr1527   2.432       .  S
O1515      C1516   1.286       .  A
C1516      C1554   1.486       .  S
O1517     Zr1520   2.472       .  S
O1517      C1519   1.294       .  A
O1518     Zr1526   2.407       .  S
O1518      C1519   1.282       .  A
C1519      C1606   1.478       .  S
Zr1520     O1521   2.435       .  S
Zr1520     O1522   2.435       .  S
Zr1520     O1528   2.380       .  S
Zr1520     O1529   2.381       .  S
Zr1520     O1532   2.382       .  S
Zr1520     O2238   2.378       .  S
O1521      H1541   0.990       .  S
O1521      H1546   0.990       .  S
O1522      H1542   0.990       .  S
Zr1523     O1524   2.434       .  S
Zr1523     O1525   2.436       .  S
Zr1523     O1529   2.370       .  S
Zr1523     O1528   2.370       .  S
Zr1523     O1533   2.376       .  S
Zr1523     O1531   2.367       .  S
O1524      H1540   0.990       .  S
O1525      H1539   0.990       .  S
O1525      H1549   0.990       .  S
Zr1526     O2197   2.412       .  S
Zr1526     O2203   2.408       .  S
Zr1526     O2214   2.381       .  S
Zr1526     O1529   2.382       .  S
Zr1526     O1531   2.384       .  S
Zr1526     O1532   2.390       .  S
Zr1527     O2200   2.424       .  S
Zr1527     O2206   2.415       .  S
Zr1527     O2215   2.384       .  S
Zr1527     O1528   2.388       .  S
Zr1527     O2238   2.388       .  S
Zr1527     O1533   2.381       .  S
O1528      H1536   0.966       .  S
O1530     Zr2228   2.378   1_545  S
O1530     Zr2235   2.388       .  S
O1531     Zr2211   2.367       .  S
O1531      H1535   0.966       .  S
O1532     Zr2208   2.378       .  S
O1532      H2245   0.966       .  S
O1533     Zr2211   2.373       .  S
H1537      O2240   0.966       .  S
C1550      C2101   1.503       .  S
C1550      C1551   1.407       .  A
C1550      C1555   1.402       .  A
C1551      C1552   1.412       .  A
C1551      H1556   1.082       .  S
C1552      C1553   1.412       .  A
C1553      C1554   1.414       .  A
C1553      H1557   1.084       .  S
C1554      C1555   1.404       .  A
C1555      H1558   1.083       .  S
C1559      C2092   1.496       .  S
C1559      C1560   1.405       .  A
C1559      C1564   1.397       .  A
C1560      C1561   1.418       .  A
C1560      H1565   1.084       .  S
C1561      C1562   1.411       .  A
C1562      C1563   1.410       .  A
C1562      H1566   1.084       .  S
C1563      C1564   1.397       .  A
C1564      H1567   1.085       .  S
C1568      C2077   1.481       .  S
C1568      C1569   1.400       .  A
C1568      C1573   1.396       .  A
C1569      C1570   1.411       .  A
C1569      H1574   1.085       .  S
C1570      C1571   1.417       .  A
C1571      C1572   1.421       .  A
C1571      H1575   1.082       .  S
C1572      C1573   1.403       .  A
C1573      H1576   1.085       .  S
C1577      C2068   1.479       .  S
C1577      C1578   1.399       .  A
C1577      C1582   1.404       .  A
C1578      C1579   1.393       .  A
C1578      H1583   1.086       .  S
C1579      C1580   1.401       .  A
C1580      C1581   1.413       .  A
C1580      H1584   1.083       .  S
C1581      C1582   1.410       .  A
C1582      H1585   1.084       .  S
C1586      C2053   1.485       .  S
C1586      C1587   1.406       .  A
C1586      C1591   1.406       .  A
C1587      C1588   1.395       .  A
C1587      H1592   1.085       .  S
C1588      C1589   1.400       .  A
C1589      C1590   1.410       .  A
C1589      H1593   1.084       .  S
C1590      C1591   1.406       .  A
C1591      H1594   1.084       .  S
C1595      C2044   1.477       .  S
C1595      C1596   1.400       .  A
C1595      C1600   1.399       .  A
C1596      C1597   1.397       .  A
C1596      H1601   1.085       .  S
C1597      C1598   1.412       .  A
C1598      C1599   1.409       .  A
C1598      H1602   1.082       .  S
C1599      C1600   1.405       .  A
C1600      H1603   1.085       .  S
C1604      C2032   1.523       .  S
C1604      C1605   1.411       .  A
C1604      C1609   1.424       .  A
C1605      C1606   1.400       .  A
C1605      H1610   1.075       .  S
C1606      C1607   1.407       .  A
C1607      C1608   1.402       .  A
C1607      H1611   1.084       .  S
C1608      C1609   1.410       .  A
C1609      H1612   1.080       .  S
O1613     Zr1625   2.463       .  S
O1613      C1615   1.292       .  A
O1614     Zr1651   2.407       .  S
O1614      C1615   1.284       .  A
C1615      C2089   1.490       .  S
O1616     Zr1628   2.444   1_554  S
O1616      C1618   1.286       .  A
O1617     Zr1652   2.410       .  S
O1617      C1618   1.283       .  A
C1618      C2017   1.465       .  S
O1619     Zr1628   2.446       .  S
O1619      C1621   1.288       .  A
O1620     Zr1651   2.420       .  S
O1620      C1621   1.287       .  A
C1621      C2116   1.482       .  S
O1622     Zr1625   2.474   1_554  S
O1622      C1624   1.294       .  A
O1623     Zr1652   2.388       .  S
O1623      C1624   1.281       .  A
C1624      C1993   1.486       .  S
Zr1625     O1626   2.433       .  S
Zr1625     O1627   2.435       .  S
Zr1625     O1631   2.377       .  S
Zr1625     O1632   2.371   1_556  S
Zr1625     O1655   2.376   1_556  S
Zr1625     O1657   2.383       .  S
O1626      H1669   0.990       .  S
O1627      H1668   0.990       .  S
O1627      H1672   0.990       .  S
Zr1628     O1629   2.436       .  S
Zr1628     O1630   2.436       .  S
Zr1628     O1632   2.375   1_556  S
Zr1628     O1631   2.372       .  S
Zr1628     O1656   2.379       .  S
Zr1628     O1658   2.379   1_556  S
O1629      H1670   0.990   1_556  S
O1629      H1673   0.990       .  S
O1630      H1663   0.990       .  S
O1631     Zr1651   2.373       .  S
O1632     Zr1652   2.374       .  S
O1632      H1659   0.966       .  S
O1633     Zr1645   2.449   1_554  S
O1633      C1635   1.287       .  A
O1634     Zr1652   2.426       .  S
O1634      C1635   1.286       .  A
C1635      C1981   1.475       .  S
O1636     Zr1648   2.472       .  S
O1636      C1638   1.294       .  A
O1637     Zr1651   2.405       .  S
O1637      C1638   1.283       .  A
C1638      C2080   1.498       .  S
O1639     Zr1648   2.475   1_554  S
O1639      C1641   1.293       .  A
O1640     Zr1652   2.383       .  S
O1640      C1641   1.281       .  A
C1641      C2008   1.491       .  S
O1642     Zr1645   2.435       .  S
O1642      C1644   1.285       .  A
O1643     Zr1651   2.427       .  S
O1643      C1644   1.287       .  A
C1644      C2104   1.472       .  S
Zr1645     O1646   2.436       .  S
Zr1645     O1647   2.433       .  S
Zr1645     O1653   2.370   1_556  S
Zr1645     O1654   2.376       .  S
Zr1645     O1657   2.378       .  S
Zr1645     O1655   2.373   1_556  S
O1646      H1666   0.990   1_556  S
O1646      H1671   0.990   1_556  S
O1647      H1667   0.990   1_556  S
Zr1648     O1649   2.434       .  S
Zr1648     O1650   2.434       .  S
Zr1648     O1654   2.379       .  S
Zr1648     O1653   2.379   1_556  S
Zr1648     O1658   2.381   1_556  S
Zr1648     O1656   2.380       .  S
O1649      H1665   0.990       .  S
O1650      H1664   0.990   1_556  S
O1650      H1674   0.990       .  S
Zr1651     O1654   2.373       .  S
Zr1651     O1656   2.379       .  S
Zr1651     O1657   2.380       .  S
Zr1652     O1653   2.373       .  S
Zr1652     O1655   2.369       .  S
Zr1652     O1658   2.375       .  S
O1653      H1661   0.966       .  S
O1656      H1660   0.966       .  S
O1657      H1662   0.966       .  S
C1675      C1984   1.510       .  S
C1675      C1676   1.412       .  A
C1675      C1680   1.407       .  A
C1676      C1677   1.412       .  A
C1676      H1681   1.082       .  S
C1677      C1704   1.477       .  S
C1677      C1678   1.399       .  A
C1678      C1679   1.401       .  A
C1678      H1682   1.084       .  S
C1679      C1766   1.459       .  S
C1679      C1680   1.399       .  A
C1680      H1683   1.081       .  S
C1684      C2020   1.515       .  S
C1684      C1685   1.416       .  A
C1684      C1689   1.409       .  A
C1685      C1686   1.401       .  A
C1685      H1690   1.081       .  S
C1686      C1786   1.467       .  S
C1686      C1687   1.400       .  A
C1687      C1688   1.399       .  A
C1687      H1691   1.083       .  S
C1688      C1724   1.467       .  S
C1688      C1689   1.402       .  A
C1689      H1692   1.074       .  S
C1693      C1996   1.482       .  S
C1693      C1694   1.396       .  A
C1693      C1698   1.402       .  A
C1694      C1695   1.399       .  A
C1694      H1699   1.085       .  S
C1695      C1775   1.457       .  S
C1695      C1696   1.405       .  A
C1696      C1697   1.402       .  A
C1696      H1700   1.084       .  S
C1697      C1713   1.474       .  S
C1697      C1698   1.411       .  A
C1698      H1701   1.085       .  S
O1702     Zr1714   2.398       .  S
O1702      C1704   1.280       .  A
O1703     Zr2448   2.469       .  S
O1703      C1704   1.295       .  A
O1705     Zr1717   2.411       .  S
O1705      C1707   1.281       .  A
O1706     Zr2449   2.455       .  S
O1706      C1707   1.293       .  A
C1707      C1864   1.462       .  S
O1708     Zr1717   2.409       .  S
O1708      C1710   1.281       .  A
O1709     Zr2448   2.446       .  S
O1709      C1710   1.291       .  A
C1710      C1857   1.458       .  S
O1711     Zr1714   2.388       .  S
O1711      C1713   1.279       .  A
O1712     Zr2449   2.472       .  S
O1712      C1713   1.295       .  A
Zr1714     O1715   2.434       .  S
Zr1714     O1716   2.437       .  S
Zr1714     O1720   2.356       .  S
Zr1714     O1721   2.358       .  S
Zr1714     O2452   2.360       .  S
Zr1714     O2454   2.352       .  S
O1715      H1758   0.990       .  S
O1716      H1757   0.990       .  S
O1716      H1761   0.990       .  S
Zr1717     O1718   2.437       .  S
Zr1717     O1719   2.436       .  S
Zr1717     O1721   2.368       .  S
Zr1717     O1720   2.368       .  S
Zr1717     O2453   2.368       .  S
Zr1717     O2455   2.372       .  S
O1718      H1759   0.990       .  S
O1718      H1762   0.990       .  S
O1719      H1752   0.990       .  S
O1720     Zr2448   2.382       .  S
O1721     Zr2449   2.391       .  S
O1721      H1748   0.966       .  S
O1722     Zr1734   2.421       .  S
O1722      C1724   1.285       .  A
O1723     Zr1741   2.442       .  S
O1723      C1724   1.289       .  A
O1725     Zr1737   2.390       .  S
O1725      C1727   1.277       .  A
O1726     Zr1740   2.458       .  S
O1726      C1727   1.293       .  A
C1727      C1837   1.460       .  S
O1728     Zr1737   2.392       .  S
O1728      C1730   1.278       .  A
O1729     Zr1741   2.477       .  S
O1729      C1730   1.297       .  A
C1730      C1846   1.466       .  S
O1731     Zr1734   2.405       .  S
O1731      C1733   1.281       .  A
O1732     Zr1740   2.446       .  S
O1732      C1733   1.290       .  A
C1733      C1830   1.464       .  S
Zr1734     O1735   2.436       .  S
Zr1734     O1736   2.427       .  S
Zr1734     O1742   2.346       .  S
Zr1734     O1743   2.360       .  S
Zr1734     O1746   2.361       .  S
Zr1734     O1744   2.363       .  S
O1735      H1755   0.990       .  S
O1735      H1760   0.990       .  S
O1736      H1756   0.990       .  S
Zr1737     O1738   2.434       .  S
Zr1737     O1739   2.435       .  S
Zr1737     O1743   2.368       .  S
Zr1737     O1742   2.367       .  S
Zr1737     O1747   2.362       .  S
Zr1737     O1745   2.360       .  S
O1738      H1754   0.990       .  S
O1739      H1753   0.990       .  S
O1739      H1763   0.990       .  S
Zr1740     O2411   2.469   1_545  S
Zr1740     O2417   2.446   1_545  S
Zr1740     O2428   2.382   1_545  S
Zr1740     O1743   2.386       .  S
Zr1740     O1745   2.399       .  S
Zr1740     O1746   2.388       .  S
Zr1741     O2414   2.455   1_545  S
Zr1741     O2420   2.472   1_545  S
Zr1741     O2429   2.391   1_545  S
Zr1741     O1742   2.391       .  S
Zr1741     O1744   2.394       .  S
Zr1741     O1747   2.398       .  S
O1742      H1750   0.965       .  S
O1744     Zr2422   2.360   1_545  S
O1745     Zr2425   2.368   1_545  S
O1745      H1749   0.966       .  S
O1746     Zr2422   2.352   1_545  S
O1746      H1751   0.966       .  S
O1747     Zr2425   2.372   1_545  S
O1764     Zr1776   2.425       .  S
O1764      C1766   1.284       .  A
O1765     Zr1802   2.429       .  S
O1765      C1766   1.287       .  A
O1767      C1769   1.281       .  A
O1768     Zr1803   2.446       .  S
O1768      C1769   1.289       .  A
C1769      C1866   1.466       .  S
O1770     Zr1779   2.394       .  S
O1770      C1772   1.280       .  A
O1771     Zr1802   2.466       .  S
O1771      C1772   1.294       .  A
C1772      C1855   1.471       .  S
O1773      C1775   1.280       .  A
O1774     Zr1803   2.446       .  S
O1774      C1775   1.291       .  A
Zr1776     O1777   2.434       .  S
Zr1776     O1782   2.363       .  S
Zr1776     O1808   2.363       .  S
O1777      H1820   0.990       .  S
Zr1779     O1780   2.438       .  S
Zr1779     O1782   2.362       .  S
Zr1779     O1807   2.355       .  S
O1780      H1824   0.990       .  S
O1782     Zr1802   2.379       .  S
O1783     Zr1803   2.390       .  S
O1783      H1810   0.966       .  S
O1784     Zr1796   2.423       .  S
O1784      C1786   1.283       .  A
O1785     Zr1803   2.447       .  S
O1785      C1786   1.290       .  A
O1787      C1789   1.284       .  A
O1788     Zr1802   2.425       .  S
O1788      C1789   1.286       .  A
C1789      C1839   1.456       .  S
O1790     Zr1799   2.404       .  S
O1790      C1792   1.281       .  A
O1791     Zr1803   2.444       .  S
O1791      C1792   1.290       .  A
C1792      C1848   1.461       .  S
O1793      C1795   1.279       .  A
O1794     Zr1802   2.449       .  S
O1794      C1795   1.292       .  A
C1795      C1828   1.458       .  S
Zr1796     O1797   2.438       .  S
Zr1796     O1798   2.435       .  S
Zr1796     O1804   2.364       .  S
Zr1796     O1806   2.364       .  S
O1797      H1817   0.990       .  S
O1797      H1822   0.990       .  S
O1798      H1818   0.990       .  S
Zr1799     O1800   2.434       .  S
Zr1799     O1804   2.363       .  S
Zr1799     O1809   2.365       .  S
Zr1802     O1805   2.383       .  S
Zr1802     O1807   2.384       .  S
Zr1802     O1808   2.397       .  S
Zr1803     O1804   2.391       .  S
Zr1803     O1806   2.394       .  S
Zr1803     O1809   2.387       .  S
O1804      H1812   0.966       .  S
O1807      H1811   0.966       .  S
O1808      H1813   0.966       .  S
C1826      C2005   1.476       .  S
C1826      C1827   1.398       .  A
C1826      C1831   1.398       .  A
C1827      C1828   1.398       .  A
C1827      H1832   1.085       .  S
C1828      C1829   1.401       .  A
C1829      C1830   1.401       .  A
C1829      H1833   1.083       .  S
C1830      C1831   1.407       .  A
C1831      H1834   1.085       .  S
C1835      C1972   1.474       .  S
C1835      C1836   1.401       .  A
C1835      C1840   1.398       .  A
C1836      C1837   1.406       .  A
C1836      H1841   1.084       .  S
C1837      C1838   1.401       .  A
C1838      C1839   1.399       .  A
C1838      H1842   1.083       .  S
C1839      C1840   1.399       .  A
C1840      H1843   1.086       .  S
C1844      C1957   1.480       .  S
C1844      C1845   1.404       .  A
C1844      C1849   1.397       .  A
C1845      C1846   1.398       .  A
C1845      H1850   1.085       .  S
C1846      C1847   1.401       .  A
C1847      C1848   1.405       .  A
C1847      H1851   1.083       .  S
C1848      C1849   1.406       .  A
C1849      H1852   1.085       .  S
C1853      C1948   1.495       .  S
C1853      C1854   1.406       .  A
C1853      C1858   1.402       .  A
C1854      C1855   1.408       .  A
C1854      H1859   1.084       .  S
C1855      C1856   1.400       .  A
C1856      C1857   1.403       .  A
C1856      H1860   1.084       .  S
C1857      C1858   1.402       .  A
C1858      H1861   1.084       .  S
C1862      C1936   1.474       .  S
C1862      C1863   1.401       .  A
C1862      C1867   1.395       .  A
C1863      C1864   1.403       .  A
C1863      H1868   1.084       .  S
C1864      C1865   1.406       .  A
C1865      C1866   1.402       .  A
C1865      H1869   1.084       .  S
C1866      C1867   1.402       .  A
C1867      H1870   1.085       .  S
O1871     Zr1883   2.488       .  S
O1871      C1873   1.295       .  A
O1872      C1873   1.273       .  A
C1873      C2056   1.492       .  S
O1874     Zr1886   2.478       .  S
O1874      C1876   1.294       .  A
O1875      C1876   1.280       .  A
C1876      C1969   1.485       .  S
O1877     Zr1886   2.491       .  S
O1877      C1879   1.295       .  A
O1878      C1879   1.271       .  A
C1879      C2065   1.494       .  S
O1880     Zr1883   2.445       .  S
O1880      C1882   1.287       .  A
O1881      C1882   1.288       .  A
C1882      C1945   1.477       .  S
Zr1883     O1884   2.434       .  S
Zr1883     O1885   2.434       .  S
Zr1883     O2597   2.363       .  S
Zr1883     O2598   2.388       .  S
O1884      H2635   0.990       .  S
O1885      H1926   0.990       .  S
O1885      H1930   0.990       .  S
Zr1886     O1887   2.436       .  S
Zr1886     O1888   2.436       .  S
Zr1886     O1890   2.386       .  S
Zr1886     O1889   2.379       .  S
O1887      H1928   0.990       .  S
O1887      H1931   0.990       .  S
O1888      H1921   0.990       .  S
O1889     Zr2591   2.363   1_545  S
O1890     Zr2591   2.388   1_545  S
O1890      H1917   0.966       .  S
O1891     Zr1903   2.446       .  S
O1891      C1893   1.288       .  A
O1892     Zr1910   2.407   1_565  S
O1892      C2601   1.283       .  A
C1893      O2600   1.283       .  A
C1893      C1933   1.491       .  S
O1894     Zr1906   2.469       .  S
O1894      C1896   1.290       .  A
O1895     Zr1909   2.366       .  S
O1895      C1896   1.276       .  A
C1896      C2041   1.471       .  S
O1897     Zr1906   2.438       .  S
O1897      C1899   1.285       .  A
O1898     Zr1910   2.437       .  S
O1898      C1899   1.290       .  A
C1899      C1960   1.489       .  S
O1900     Zr1903   2.455       .  S
O1900      C1902   1.288       .  A
O1901     Zr2617   2.405       .  S
O1901      C1902   1.281       .  A
C1902      C2029   1.472       .  S
Zr1903     O1904   2.435       .  S
Zr1903     O1905   2.432       .  S
Zr1903     O2619   2.377       .  S
Zr1903     O2620   2.376       .  S
Zr1903     O1915   2.373       .  S
Zr1903     O1913   2.376       .  S
O1904      H1924   0.990       .  S
O1904      H1929   0.990       .  S
O1905      H1925   0.990       .  S
Zr1906     O1907   2.433       .  S
Zr1906     O1908   2.435       .  S
Zr1906     O1912   2.378       .  S
Zr1906     O1911   2.393       .  S
Zr1906     O1916   2.386       .  S
Zr1906     O1914   2.370       .  S
O1907      H1923   0.990       .  S
O1908      H1922   0.990       .  S
O1908      H1932   0.990       .  S
Zr1909     O2609   2.405   1_545  S
Zr1909     O1912   2.352       .  S
Zr1909     O1914   2.367       .  S
Zr1909     O2623   2.355   1_545  S
Zr1910     O1911   2.372       .  S
Zr1910     O2621   2.368   1_545  S
Zr1910     O1916   2.378       .  S
O1911     Zr2611   2.377   1_545  S
O1911      H1919   0.966       .  S
O1912     Zr2611   2.376   1_545  S
O1913     Zr2618   2.368       .  S
O1914      H1918   0.966       .  S
O1915     Zr2617   2.355       .  S
O1915      H1920   0.966       .  S
H1927      O2592   0.990       .  S
C1933      C1934   1.411       .  A
C1933      C1938   1.423       .  A
C1934      C1935   1.404       .  A
C1934      H1939   1.084       .  S
C1935      C1936   1.405       .  A
C1935      C1942   1.443       .  S
C1936      C1937   1.397       .  A
C1937      C1938   1.392       .  A
C1937      H1940   1.086       .  S
C1938      C1941   1.445       .  S
C1941      N1943   1.158       .  T
C1942      N1944   1.157       .  T
C1945      C1946   1.396       .  A
C1945      C1950   1.409       .  A
C1946      C1947   1.395       .  A
C1946      H1951   1.083       .  S
C1947      C1948   1.416       .  A
C1947      C1954   1.443       .  S
C1948      C1949   1.411       .  A
C1949      C1950   1.408       .  A
C1949      H1952   1.084       .  S
C1950      C1953   1.443       .  S
C1953      N1955   1.157       .  T
C1954      N1956   1.156       .  T
C1957      C1958   1.391       .  A
C1957      C1962   1.413       .  A
C1958      C1959   1.378       .  A
C1958      H1963   1.087       .  S
C1959      C1960   1.407       .  A
C1959      C1966   1.424       .  S
C1960      C1961   1.413       .  A
C1961      C1962   1.415       .  A
C1961      H1964   1.084       .  S
C1962      C1965   1.442       .  S
C1965      N1967   1.157       .  T
C1966      N1968   1.148       .  T
C1969      C1970   1.410       .  A
C1969      C1974   1.419       .  A
C1970      C1971   1.411       .  A
C1970      H1975   1.084       .  S
C1971      C1972   1.409       .  A
C1971      C1978   1.442       .  S
C1972      C1973   1.393       .  A
C1973      C1974   1.384       .  A
C1973      H1976   1.087       .  S
C1974      C1977   1.442       .  S
C1978      N1980   1.157       .  T
C1981      C1982   1.398       .  A
C1981      C1986   1.404       .  A
C1982      C1983   1.404       .  A
C1982      H1987   1.085       .  S
C1983      C1984   1.425       .  A
C1983      C1990   1.444       .  S
C1984      C1985   1.413       .  A
C1985      C1986   1.400       .  A
C1985      H1988   1.082       .  S
C1986      C1989   1.443       .  S
C1989      N1991   1.157       .  T
C1990      N1992   1.157       .  T
C1993      C1994   1.406       .  A
C1993      C1998   1.413       .  A
C1994      C1995   1.392       .  A
C1994      H1999   1.084       .  S
C1995      C1996   1.409       .  A
C1995      C2002   1.445       .  S
C1996      C1997   1.407       .  A
C1997      C1998   1.408       .  A
C1997      H2000   1.084       .  S
C1998      C2001   1.442       .  S
C2001      N2003   1.157       .  T
C2002      N2004   1.157       .  T
C2005      C2006   1.405       .  A
C2005      C2010   1.406       .  A
C2006      C2007   1.410       .  A
C2006      H2011   1.084       .  S
C2007      C2008   1.416       .  A
C2007      C2014   1.443       .  S
C2008      C2009   1.410       .  A
C2009      C2010   1.387       .  A
C2009      H2012   1.085       .  S
C2010      C2013   1.447       .  S
C2013      N2015   1.157       .  T
C2014      N2016   1.157       .  T
C2017      C2018   1.391       .  A
C2017      C2022   1.403       .  A
C2018      C2019   1.398       .  A
C2018      H2023   1.086       .  S
C2019      C2020   1.431       .  A
C2019      C2026   1.440       .  S
C2020      C2021   1.416       .  A
C2021      C2022   1.401       .  A
C2021      H2024   1.082       .  S
C2022      C2025   1.444       .  S
C2025      N2027   1.157       .  T
C2026      N2028   1.157       .  T
C2029      C2030   1.393       .  A
C2029      C2034   1.404       .  A
C2030      C2031   1.401       .  A
C2030      H2035   1.086       .  S
C2031      C2032   1.434       .  A
C2031      C2038   1.443       .  S
C2032      C2033   1.416       .  A
C2033      C2034   1.404       .  A
C2033      H2036   1.081       .  S
C2034      C2037   1.445       .  S
C2038      N2040   1.158       .  T
C2041      C2042   1.404       .  A
C2041      C2046   1.410       .  A
C2042      C2043   1.388       .  A
C2042      H2047   1.085       .  S
C2043      C2044   1.407       .  A
C2043      C2050   1.446       .  S
C2044      C2045   1.408       .  A
C2045      C2046   1.408       .  A
C2045      H2048   1.084       .  S
C2046      C2049   1.443       .  S
C2049      N2051   1.157       .  T
C2050      N2052   1.157       .  T
C2053      C2054   1.396       .  A
C2053      C2058   1.413       .  A
C2054      C2055   1.386       .  A
C2054      H2059   1.086       .  S
C2055      C2056   1.425       .  A
C2055      C2062   1.447       .  S
C2056      C2057   1.409       .  A
C2057      C2058   1.411       .  A
C2057      H2060   1.084       .  S
C2058      C2061   1.442       .  S
C2061      N2063   1.157       .  T
C2065      C2066   1.412       .  A
C2065      C2070   1.426       .  A
C2066      C2067   1.415       .  A
C2066      H2071   1.084       .  S
C2067      C2068   1.412       .  A
C2067      C2074   1.442       .  S
C2068      C2069   1.392       .  A
C2069      C2070   1.380       .  A
C2069      H2072   1.087       .  S
C2070      C2073   1.448       .  S
C2073      N2075   1.157       .  T
C2074      N2076   1.157       .  T
C2077      C2078   1.396       .  A
C2077      C2082   1.409       .  A
C2078      C2079   1.395       .  A
C2078      H2083   1.086       .  S
C2079      C2080   1.423       .  A
C2079      C2086   1.444       .  S
C2080      C2081   1.411       .  A
C2081      C2082   1.409       .  A
C2081      H2084   1.084       .  S
C2082      C2085   1.443       .  S
C2085      N2087   1.157       .  T
C2086      N2088   1.157       .  T
C2089      C2090   1.410       .  A
C2089      C2094   1.416       .  A
C2090      C2091   1.410       .  A
C2090      H2095   1.084       .  S
C2091      C2092   1.413       .  A
C2091      C2098   1.442       .  S
C2092      C2093   1.406       .  A
C2093      C2094   1.393       .  A
C2093      H2096   1.085       .  S
C2094      C2097   1.446       .  S
C2097      N2099   1.157       .  T
C2098      N2100   1.157       .  T
C2101      C2102   1.413       .  A
C2101      C2106   1.421       .  A
C2102      C2103   1.404       .  A
C2102      H2107   1.084       .  S
C2103      C2104   1.406       .  A
C2103      C2110   1.444       .  S
C2104      C2105   1.395       .  A
C2105      C2106   1.398       .  A
C2105      H2108   1.085       .  S
C2106      C2109   1.439       .  S
C2109      N2111   1.156       .  T
C2110      N2112   1.157       .  T
C2113      C2114   1.410       .  A
C2113      C2118   1.416       .  A
C2114      C2115   1.393       .  A
C2114      H2119   1.084       .  S
C2115      C2116   1.408       .  A
C2115      C2122   1.445       .  S
C2116      C2117   1.407       .  A
C2117      C2118   1.409       .  A
C2117      H2120   1.085       .  S
C2118      C2121   1.443       .  S
C2121      N2123   1.157       .  T
C2122      N2124   1.157       .  T
O2125     Zr2137   2.404       .  S
O2125      C2127   1.282       .  A
O2126      C2127   1.299       .  A
C2127      C2189   1.489       .  S
O2128     Zr2140   2.425       .  S
O2128      C2130   1.284       .  A
O2129     Zr2164   2.483       .  S
O2129      C2130   1.298       .  A
C2130      C2316   1.486       .  S
O2131     Zr2140   2.407       .  S
O2131      C2133   1.282       .  A
O2132      C2133   1.296       .  A
C2133      C2307   1.473       .  S
O2134     Zr2137   2.398       .  S
O2134      C2136   1.281       .  A
O2135     Zr2164   2.484       .  S
O2135      C2136   1.298       .  A
C2136      C2269   1.484       .  S
Zr2137     O2138   2.434       .  S
Zr2137     O2139   2.436       .  S
Zr2137     O2143   2.358       .  S
Zr2137     O2144   2.368       .  S
Zr2137     O2167   2.364       .  S
O2138      H2181   0.990       .  S
O2139      H2180   0.990       .  S
O2139      H2184   0.990       .  S
Zr2140     O2141   2.437       .  S
Zr2140     O2142   2.437       .  S
Zr2140     O2144   2.364       .  S
Zr2140     O2143   2.367       .  S
Zr2140     O2170   2.363   1_655  S
O2141      H2182   0.990       .  S
O2141      H2185   0.990       .  S
O2142      H2175   0.990       .  S
O2144     Zr2164   2.395       .  S
O2144      H2171   0.966       .  S
O2145     Zr2157   2.420       .  S
O2145      C2147   1.285       .  A
O2146      C2147   1.297       .  A
C2147      C2260   1.487       .  S
O2148     Zr2160   2.393       .  S
O2148      C2150   1.278       .  A
O2149     Zr2163   2.470       .  S
O2149      C2150   1.296       .  A
C2150      C2287   1.466       .  S
O2151     Zr2160   2.401       .  S
O2151      C2153   1.279       .  A
O2152      C2153   1.296       .  A
C2153      C2296   1.468       .  S
O2154     Zr2157   2.421       .  S
O2154      C2156   1.286       .  A
O2155     Zr2163   2.485       .  S
O2155      C2156   1.298       .  A
C2156      C2278   1.493       .  S
Zr2157     O2158   2.441       .  S
Zr2157     O2159   2.433       .  S
Zr2157     O2165   2.366       .  S
Zr2157     O2166   2.355       .  S
Zr2157     O2169   2.365       .  S
O2158      H2178   0.989       .  S
O2158      H2183   0.988       .  S
O2159      H2179   0.990       .  S
Zr2160     O2161   2.434       .  S
Zr2160     O2162   2.435       .  S
Zr2160     O2166   2.358       .  S
Zr2160     O2165   2.358       .  S
Zr2160     O2168   2.365       .  S
O2161      H2177   0.990       .  S
O2162      H2176   0.990       .  S
O2162      H2186   0.990       .  S
Zr2163     O2166   2.385       .  S
Zr2163     O2168   2.409       .  S
Zr2163     O2169   2.397       .  S
Zr2164     O2167   2.401       .  S
Zr2164     O2170   2.397   1_655  S
O2165      H2173   0.965       .  S
O2168      H2172   0.966       .  S
O2169      H2174   0.966       .  S
C2187      C2821   1.499       .  S
C2187      C2188   1.406       .  A
C2187      C2192   1.397       .  A
C2188      C2189   1.418       .  A
C2188      H2193   1.083       .  S
C2189      C2190   1.412       .  A
C2190      C2191   1.413       .  A
C2190      H2194   1.082       .  S
C2191      C2204   1.479       .  S
C2191      C2192   1.395       .  A
C2192      H2195   1.085       .  S
O2196     Zr2208   2.458       .  S
O2196      C2198   1.291       .  A
O2197      C2198   1.282       .  A
C2198      C2305   1.473       .  S
O2199     Zr2211   2.469       .  S
O2199      C2201   1.295       .  A
O2200      C2201   1.284       .  A
C2201      C2280   1.489       .  S
O2202     Zr2211   2.464       .  S
O2202      C2204   1.295       .  A
O2203      C2204   1.280       .  A
O2205     Zr2208   2.459       .  S
O2205      C2207   1.291       .  A
O2206      C2207   1.284       .  A
C2207      C2289   1.473       .  S
Zr2208     O2209   2.433       .  S
Zr2208     O2210   2.436       .  S
Zr2208     O2214   2.375       .  S
Zr2208     O2215   2.379       .  S
Zr2208     O2238   2.375       .  S
O2209      H2252   0.990       .  S
O2210      H2251   0.990       .  S
O2210      H2255   0.990       .  S
Zr2211     O2212   2.434       .  S
Zr2211     O2213   2.435       .  S
Zr2211     O2215   2.368       .  S
Zr2211     O2214   2.372       .  S
O2212      H2253   0.990       .  S
O2212      H2256   0.990       .  S
O2213      H2246   0.990       .  S
O2215      H2242   0.966       .  S
O2216     Zr2228   2.476       .  S
O2216      C2218   1.294       .  A
O2217     Zr2235   2.396   1_565  S
O2217      C2218   1.281       .  A
C2218      C2298   1.471       .  S
O2219     Zr2231   2.454       .  S
O2219      C2221   1.293       .  A
O2220     Zr2234   2.414   1_565  S
O2220      C2221   1.281       .  A
C2221      C2271   1.478       .  S
O2222     Zr2231   2.450       .  S
O2222      C2224   1.291       .  A
O2223     Zr2235   2.432   1_565  S
O2223      C2224   1.286       .  A
C2224      C2262   1.486       .  S
O2225     Zr2228   2.472       .  S
O2225      C2227   1.294       .  A
O2226     Zr2234   2.407   1_565  S
O2226      C2227   1.282       .  A
C2227      C2314   1.478       .  S
Zr2228     O2229   2.435       .  S
Zr2228     O2230   2.435       .  S
Zr2228     O2236   2.380       .  S
Zr2228     O2237   2.381       .  S
Zr2228     O2240   2.382   1_565  S
O2229      H2249   0.990       .  S
O2229      H2254   0.990       .  S
O2230      H2250   0.990       .  S
Zr2231     O2232   2.434       .  S
Zr2231     O2233   2.436       .  S
Zr2231     O2237   2.370       .  S
Zr2231     O2236   2.370       .  S
Zr2231     O2241   2.376   1_565  S
Zr2231     O2239   2.367   1_565  S
O2232      H2248   0.990       .  S
O2233      H2247   0.990       .  S
O2233      H2257   0.990       .  S
Zr2234     O2237   2.382   1_545  S
Zr2234     O2239   2.384       .  S
Zr2234     O2240   2.390       .  S
Zr2235     O2236   2.388   1_545  S
Zr2235     O2241   2.381       .  S
O2236      H2244   0.966       .  S
O2239      H2243   0.966       .  S
C2258      C2809   1.503       .  S
C2258      C2259   1.407       .  A
C2258      C2263   1.402       .  A
C2259      C2260   1.412       .  A
C2259      H2264   1.082       .  S
C2260      C2261   1.412       .  A
C2261      C2262   1.414       .  A
C2261      H2265   1.084       .  S
C2262      C2263   1.404       .  A
C2263      H2266   1.083       .  S
C2267      C2800   1.496       .  S
C2267      C2268   1.405       .  A
C2267      C2272   1.397       .  A
C2268      C2269   1.418       .  A
C2268      H2273   1.084       .  S
C2269      C2270   1.411       .  A
C2270      C2271   1.410       .  A
C2270      H2274   1.084       .  S
C2271      C2272   1.397       .  A
C2272      H2275   1.085       .  S
C2276      C2785   1.481       .  S
C2276      C2277   1.400       .  A
C2276      C2281   1.396       .  A
C2277      C2278   1.411       .  A
C2277      H2282   1.085       .  S
C2278      C2279   1.417       .  A
C2279      C2280   1.421       .  A
C2279      H2283   1.082       .  S
C2280      C2281   1.403       .  A
C2281      H2284   1.085       .  S
C2285      C2776   1.479       .  S
C2285      C2286   1.399       .  A
C2285      C2290   1.404       .  A
C2286      C2287   1.393       .  A
C2286      H2291   1.086       .  S
C2287      C2288   1.401       .  A
C2288      C2289   1.413       .  A
C2288      H2292   1.083       .  S
C2289      C2290   1.410       .  A
C2290      H2293   1.084       .  S
C2294      C2761   1.485       .  S
C2294      C2295   1.406       .  A
C2294      C2299   1.406       .  A
C2295      C2296   1.395       .  A
C2295      H2300   1.085       .  S
C2296      C2297   1.400       .  A
C2297      C2298   1.410       .  A
C2297      H2301   1.084       .  S
C2298      C2299   1.406       .  A
C2299      H2302   1.084       .  S
C2303      C2752   1.477       .  S
C2303      C2304   1.400       .  A
C2303      C2308   1.399       .  A
C2304      C2305   1.397       .  A
C2304      H2309   1.085       .  S
C2305      C2306   1.412       .  A
C2306      C2307   1.409       .  A
C2306      H2310   1.082       .  S
C2307      C2308   1.405       .  A
C2308      H2311   1.085       .  S
C2312      C2740   1.523       .  S
C2312      C2313   1.411       .  A
C2312      C2317   1.424       .  A
C2313      C2314   1.400       .  A
C2313      H2318   1.075       .  S
C2314      C2315   1.407       .  A
C2315      C2316   1.402       .  A
C2315      H2319   1.084       .  S
C2316      C2317   1.410       .  A
C2317      H2320   1.080       .  S
O2321     Zr2333   2.463       .  S
O2321      C2323   1.292       .  A
O2322     Zr2359   2.407       .  S
O2322      C2323   1.284       .  A
C2323      C2797   1.490       .  S
O2324     Zr2336   2.444   1_554  S
O2324      C2326   1.286       .  A
O2325     Zr2360   2.410       .  S
O2325      C2326   1.283       .  A
C2326      C2725   1.465       .  S
O2327     Zr2336   2.446       .  S
O2327      C2329   1.288       .  A
O2328     Zr2359   2.420       .  S
O2328      C2329   1.287       .  A
C2329      C2824   1.482       .  S
O2330     Zr2333   2.474   1_554  S
O2330      C2332   1.294       .  A
O2331     Zr2360   2.388       .  S
O2331      C2332   1.281       .  A
C2332      C2701   1.486       .  S
Zr2333     O2334   2.433       .  S
Zr2333     O2335   2.435       .  S
Zr2333     O2339   2.377       .  S
Zr2333     O2340   2.371   1_556  S
Zr2333     O2363   2.376   1_556  S
Zr2333     O2365   2.383       .  S
O2334      H2377   0.990       .  S
O2335      H2376   0.990       .  S
O2335      H2380   0.990       .  S
Zr2336     O2337   2.436       .  S
Zr2336     O2338   2.436       .  S
Zr2336     O2340   2.375   1_556  S
Zr2336     O2339   2.372       .  S
Zr2336     O2364   2.379       .  S
Zr2336     O2366   2.379   1_556  S
O2337      H2378   0.990   1_556  S
O2337      H2381   0.990       .  S
O2338      H2371   0.990       .  S
O2339     Zr2359   2.373       .  S
O2340     Zr2360   2.374       .  S
O2340      H2367   0.966       .  S
O2341     Zr2353   2.449   1_554  S
O2341      C2343   1.287       .  A
O2342     Zr2360   2.426       .  S
O2342      C2343   1.286       .  A
C2343      C2689   1.475       .  S
O2344     Zr2356   2.472       .  S
O2344      C2346   1.294       .  A
O2345     Zr2359   2.405       .  S
O2345      C2346   1.283       .  A
C2346      C2788   1.498       .  S
O2347     Zr2356   2.475   1_554  S
O2347      C2349   1.293       .  A
O2348     Zr2360   2.383       .  S
O2348      C2349   1.281       .  A
C2349      C2716   1.491       .  S
O2350     Zr2353   2.435       .  S
O2350      C2352   1.285       .  A
O2351     Zr2359   2.427       .  S
O2351      C2352   1.287       .  A
C2352      C2812   1.472       .  S
Zr2353     O2354   2.436       .  S
Zr2353     O2355   2.433       .  S
Zr2353     O2361   2.370   1_556  S
Zr2353     O2362   2.376       .  S
Zr2353     O2365   2.378       .  S
Zr2353     O2363   2.373   1_556  S
O2354      H2374   0.990   1_556  S
O2354      H2379   0.990   1_556  S
O2355      H2375   0.990   1_556  S
Zr2356     O2357   2.434       .  S
Zr2356     O2358   2.434       .  S
Zr2356     O2362   2.379       .  S
Zr2356     O2361   2.379   1_556  S
Zr2356     O2366   2.381   1_556  S
Zr2356     O2364   2.380       .  S
O2357      H2373   0.990       .  S
O2358      H2372   0.990   1_556  S
O2358      H2382   0.990       .  S
Zr2359     O2362   2.373       .  S
Zr2359     O2364   2.379       .  S
Zr2359     O2365   2.380       .  S
Zr2360     O2361   2.373       .  S
Zr2360     O2363   2.369       .  S
Zr2360     O2366   2.375       .  S
O2361      H2369   0.966       .  S
O2364      H2368   0.966       .  S
O2365      H2370   0.966       .  S
C2383      C2692   1.510       .  S
C2383      C2384   1.412       .  A
C2383      C2388   1.407       .  A
C2384      C2385   1.412       .  A
C2384      H2389   1.082       .  S
C2385      C2412   1.477       .  S
C2385      C2386   1.399       .  A
C2386      C2387   1.401       .  A
C2386      H2390   1.084       .  S
C2387      C2474   1.459       .  S
C2387      C2388   1.399       .  A
C2388      H2391   1.081       .  S
C2392      C2728   1.515       .  S
C2392      C2393   1.416       .  A
C2392      C2397   1.409       .  A
C2393      C2394   1.401       .  A
C2393      H2398   1.081       .  S
C2394      C2494   1.467       .  S
C2394      C2395   1.400       .  A
C2395      C2396   1.399       .  A
C2395      H2399   1.083       .  S
C2396      C2432   1.467       .  S
C2396      C2397   1.402       .  A
C2397      H2400   1.074       .  S
C2401      C2704   1.482       .  S
C2401      C2402   1.396       .  A
C2401      C2406   1.402       .  A
C2402      C2403   1.399       .  A
C2402      H2407   1.085       .  S
C2403      C2483   1.457       .  S
C2403      C2404   1.405       .  A
C2404      C2405   1.402       .  A
C2404      H2408   1.084       .  S
C2405      C2421   1.474       .  S
C2405      C2406   1.411       .  A
C2406      H2409   1.085       .  S
O2410     Zr2422   2.398       .  S
O2410      C2412   1.280       .  A
O2411      C2412   1.295       .  A
O2413     Zr2425   2.411       .  S
O2413      C2415   1.281       .  A
O2414      C2415   1.293       .  A
C2415      C2572   1.462       .  S
O2416     Zr2425   2.409       .  S
O2416      C2418   1.281       .  A
O2417      C2418   1.291       .  A
C2418      C2565   1.458       .  S
O2419     Zr2422   2.388       .  S
O2419      C2421   1.279       .  A
O2420      C2421   1.295       .  A
Zr2422     O2423   2.434       .  S
Zr2422     O2424   2.437       .  S
Zr2422     O2428   2.356       .  S
Zr2422     O2429   2.358       .  S
O2423      H2466   0.990       .  S
O2424      H2465   0.990       .  S
O2424      H2469   0.990       .  S
Zr2425     O2426   2.437       .  S
Zr2425     O2427   2.436       .  S
Zr2425     O2429   2.368       .  S
Zr2425     O2428   2.368       .  S
O2426      H2467   0.990       .  S
O2426      H2470   0.990       .  S
O2427      H2460   0.990       .  S
O2429      H2456   0.966       .  S
O2430     Zr2442   2.421       .  S
O2430      C2432   1.285       .  A
O2431     Zr2449   2.442       .  S
O2431      C2432   1.289       .  A
O2433     Zr2445   2.390       .  S
O2433      C2435   1.277       .  A
O2434     Zr2448   2.458       .  S
O2434      C2435   1.293       .  A
C2435      C2545   1.460       .  S
O2436     Zr2445   2.392       .  S
O2436      C2438   1.278       .  A
O2437     Zr2449   2.477       .  S
O2437      C2438   1.297       .  A
C2438      C2554   1.466       .  S
O2439     Zr2442   2.405       .  S
O2439      C2441   1.281       .  A
O2440     Zr2448   2.446       .  S
O2440      C2441   1.290       .  A
C2441      C2538   1.464       .  S
Zr2442     O2443   2.436       .  S
Zr2442     O2444   2.427       .  S
Zr2442     O2450   2.346       .  S
Zr2442     O2451   2.360       .  S
Zr2442     O2454   2.361       .  S
Zr2442     O2452   2.363       .  S
O2443      H2463   0.990       .  S
O2443      H2468   0.990       .  S
O2444      H2464   0.990       .  S
Zr2445     O2446   2.434       .  S
Zr2445     O2447   2.435       .  S
Zr2445     O2451   2.368       .  S
Zr2445     O2450   2.367       .  S
Zr2445     O2455   2.362       .  S
Zr2445     O2453   2.360       .  S
O2446      H2462   0.990       .  S
O2447      H2461   0.990       .  S
O2447      H2471   0.990       .  S
Zr2448     O2451   2.386       .  S
Zr2448     O2453   2.399       .  S
Zr2448     O2454   2.388       .  S
Zr2449     O2450   2.391       .  S
Zr2449     O2452   2.394       .  S
Zr2449     O2455   2.398       .  S
O2450      H2458   0.965       .  S
O2453      H2457   0.966       .  S
O2454      H2459   0.966       .  S
O2472     Zr2484   2.425       .  S
O2472      C2474   1.284       .  A
O2473     Zr2510   2.429       .  S
O2473      C2474   1.287       .  A
O2475      C2477   1.281       .  A
O2476     Zr2511   2.446       .  S
O2476      C2477   1.289       .  A
C2477      C2574   1.466       .  S
O2478     Zr2487   2.394       .  S
O2478      C2480   1.280       .  A
O2479     Zr2510   2.466       .  S
O2479      C2480   1.294       .  A
C2480      C2563   1.471       .  S
O2481      C2483   1.280       .  A
O2482     Zr2511   2.446       .  S
O2482      C2483   1.291       .  A
Zr2484     O2485   2.434       .  S
Zr2484     O2490   2.363       .  S
Zr2484     O2516   2.363       .  S
O2485      H2528   0.990       .  S
Zr2487     O2488   2.438       .  S
Zr2487     O2490   2.362       .  S
Zr2487     O2515   2.355       .  S
O2488      H2532   0.990       .  S
O2490     Zr2510   2.379       .  S
O2491     Zr2511   2.390       .  S
O2491      H2518   0.966       .  S
O2492     Zr2504   2.423       .  S
O2492      C2494   1.283       .  A
O2493     Zr2511   2.447       .  S
O2493      C2494   1.290       .  A
O2495      C2497   1.284       .  A
O2496     Zr2510   2.425       .  S
O2496      C2497   1.286       .  A
C2497      C2547   1.456       .  S
O2498     Zr2507   2.404       .  S
O2498      C2500   1.281       .  A
O2499     Zr2511   2.444       .  S
O2499      C2500   1.290       .  A
C2500      C2556   1.461       .  S
O2501      C2503   1.279       .  A
O2502     Zr2510   2.449       .  S
O2502      C2503   1.292       .  A
C2503      C2536   1.458       .  S
Zr2504     O2505   2.438       .  S
Zr2504     O2506   2.435       .  S
Zr2504     O2512   2.364       .  S
Zr2504     O2514   2.364       .  S
O2505      H2525   0.990       .  S
O2505      H2530   0.990       .  S
O2506      H2526   0.990       .  S
Zr2507     O2508   2.434       .  S
Zr2507     O2512   2.363       .  S
Zr2507     O2517   2.365       .  S
Zr2510     O2513   2.383       .  S
Zr2510     O2515   2.384       .  S
Zr2510     O2516   2.397       .  S
Zr2511     O2512   2.391       .  S
Zr2511     O2514   2.394       .  S
Zr2511     O2517   2.387       .  S
O2512      H2520   0.966       .  S
O2515      H2519   0.966       .  S
O2516      H2521   0.966       .  S
C2534      C2713   1.476       .  S
C2534      C2535   1.398       .  A
C2534      C2539   1.398       .  A
C2535      C2536   1.398       .  A
C2535      H2540   1.085       .  S
C2536      C2537   1.401       .  A
C2537      C2538   1.401       .  A
C2537      H2541   1.083       .  S
C2538      C2539   1.407       .  A
C2539      H2542   1.085       .  S
C2543      C2680   1.474       .  S
C2543      C2544   1.401       .  A
C2543      C2548   1.398       .  A
C2544      C2545   1.406       .  A
C2544      H2549   1.084       .  S
C2545      C2546   1.401       .  A
C2546      C2547   1.399       .  A
C2546      H2550   1.083       .  S
C2547      C2548   1.399       .  A
C2548      H2551   1.086       .  S
C2552      C2665   1.480       .  S
C2552      C2553   1.404       .  A
C2552      C2557   1.397       .  A
C2553      C2554   1.398       .  A
C2553      H2558   1.085       .  S
C2554      C2555   1.401       .  A
C2555      C2556   1.405       .  A
C2555      H2559   1.083       .  S
C2556      C2557   1.406       .  A
C2557      H2560   1.085       .  S
C2561      C2656   1.495       .  S
C2561      C2562   1.406       .  A
C2561      C2566   1.402       .  A
C2562      C2563   1.408       .  A
C2562      H2567   1.084       .  S
C2563      C2564   1.400       .  A
C2564      C2565   1.403       .  A
C2564      H2568   1.084       .  S
C2565      C2566   1.402       .  A
C2566      H2569   1.084       .  S
C2570      C2644   1.474       .  S
C2570      C2571   1.401       .  A
C2570      C2575   1.395       .  A
C2571      C2572   1.403       .  A
C2571      H2576   1.084       .  S
C2572      C2573   1.406       .  A
C2573      C2574   1.402       .  A
C2573      H2577   1.084       .  S
C2574      C2575   1.402       .  A
C2575      H2578   1.085       .  S
O2579     Zr2591   2.488       .  S
O2579      C2581   1.295       .  A
O2580      C2581   1.273       .  A
C2581      C2764   1.492       .  S
O2582     Zr2594   2.478       .  S
O2582      C2584   1.294       .  A
O2583      C2584   1.280       .  A
C2584      C2677   1.485       .  S
O2585     Zr2594   2.491       .  S
O2585      C2587   1.295       .  A
O2586      C2587   1.271       .  A
C2587      C2773   1.494       .  S
O2588     Zr2591   2.445       .  S
O2588      C2590   1.287       .  A
O2589      C2590   1.288       .  A
C2590      C2653   1.477       .  S
Zr2591     O2592   2.434       .  S
Zr2591     O2593   2.434       .  S
O2593      H2634   0.990       .  S
O2593      H2638   0.990       .  S
Zr2594     O2595   2.436       .  S
Zr2594     O2596   2.436       .  S
Zr2594     O2598   2.386       .  S
Zr2594     O2597   2.379       .  S
O2595      H2636   0.990       .  S
O2595      H2639   0.990       .  S
O2596      H2629   0.990       .  S
O2598      H2625   0.966       .  S
O2599     Zr2611   2.446       .  S
O2599      C2601   1.288       .  A
O2600     Zr2618   2.407       .  S
C2601      C2641   1.491       .  S
O2602     Zr2614   2.469       .  S
O2602      C2604   1.290       .  A
O2603     Zr2617   2.366       .  S
O2603      C2604   1.276       .  A
C2604      C2749   1.471       .  S
O2605     Zr2614   2.438       .  S
O2605      C2607   1.285       .  A
O2606     Zr2618   2.437       .  S
O2606      C2607   1.290       .  A
C2607      C2668   1.489       .  S
O2608     Zr2611   2.455       .  S
O2608      C2610   1.288       .  A
O2609      C2610   1.281       .  A
C2610      C2737   1.472       .  S
Zr2611     O2612   2.435       .  S
Zr2611     O2613   2.432       .  S
Zr2611     O2623   2.373       .  S
Zr2611     O2621   2.376       .  S
O2612      H2632   0.990       .  S
O2612      H2637   0.990       .  S
O2613      H2633   0.990       .  S
Zr2614     O2615   2.433       .  S
Zr2614     O2616   2.435       .  S
Zr2614     O2620   2.378       .  S
Zr2614     O2619   2.393       .  S
Zr2614     O2624   2.386       .  S
Zr2614     O2622   2.370       .  S
O2615      H2631   0.990       .  S
O2616      H2630   0.990       .  S
O2616      H2640   0.990       .  S
Zr2617     O2620   2.352       .  S
Zr2617     O2622   2.367       .  S
Zr2618     O2619   2.372       .  S
Zr2618     O2624   2.378       .  S
O2619      H2627   0.966       .  S
O2622      H2626   0.966       .  S
O2623      H2628   0.966       .  S
C2641      C2642   1.411       .  A
C2641      C2646   1.423       .  A
C2642      C2643   1.404       .  A
C2642      H2647   1.084       .  S
C2643      C2644   1.405       .  A
C2643      C2650   1.443       .  S
C2644      C2645   1.397       .  A
C2645      C2646   1.392       .  A
C2645      H2648   1.086       .  S
C2646      C2649   1.445       .  S
C2649      N2651   1.158       .  T
C2650      N2652   1.157       .  T
C2653      C2654   1.396       .  A
C2653      C2658   1.409       .  A
C2654      C2655   1.395       .  A
C2654      H2659   1.083       .  S
C2655      C2656   1.416       .  A
C2655      C2662   1.443       .  S
C2656      C2657   1.411       .  A
C2657      C2658   1.408       .  A
C2657      H2660   1.084       .  S
C2658      C2661   1.443       .  S
C2661      N2663   1.157       .  T
C2662      N2664   1.156       .  T
C2665      C2666   1.391       .  A
C2665      C2670   1.413       .  A
C2666      C2667   1.378       .  A
C2666      H2671   1.087       .  S
C2667      C2668   1.407       .  A
C2667      C2674   1.424       .  S
C2668      C2669   1.413       .  A
C2669      C2670   1.415       .  A
C2669      H2672   1.084       .  S
C2670      C2673   1.442       .  S
C2673      N2675   1.157       .  T
C2674      N2676   1.148       .  T
C2677      C2678   1.410       .  A
C2677      C2682   1.419       .  A
C2678      C2679   1.411       .  A
C2678      H2683   1.084       .  S
C2679      C2680   1.409       .  A
C2679      C2686   1.442       .  S
C2680      C2681   1.393       .  A
C2681      C2682   1.384       .  A
C2681      H2684   1.087       .  S
C2682      C2685   1.442       .  S
C2686      N2688   1.157       .  T
C2689      C2690   1.398       .  A
C2689      C2694   1.404       .  A
C2690      C2691   1.404       .  A
C2690      H2695   1.085       .  S
C2691      C2692   1.425       .  A
C2691      C2698   1.444       .  S
C2692      C2693   1.413       .  A
C2693      C2694   1.400       .  A
C2693      H2696   1.082       .  S
C2694      C2697   1.443       .  S
C2697      N2699   1.157       .  T
C2698      N2700   1.157       .  T
C2701      C2702   1.406       .  A
C2701      C2706   1.413       .  A
C2702      C2703   1.392       .  A
C2702      H2707   1.084       .  S
C2703      C2704   1.409       .  A
C2703      C2710   1.445       .  S
C2704      C2705   1.407       .  A
C2705      C2706   1.408       .  A
C2705      H2708   1.084       .  S
C2706      C2709   1.442       .  S
C2709      N2711   1.157       .  T
C2710      N2712   1.157       .  T
C2713      C2714   1.405       .  A
C2713      C2718   1.406       .  A
C2714      C2715   1.410       .  A
C2714      H2719   1.084       .  S
C2715      C2716   1.416       .  A
C2715      C2722   1.443       .  S
C2716      C2717   1.410       .  A
C2717      C2718   1.387       .  A
C2717      H2720   1.085       .  S
C2718      C2721   1.447       .  S
C2721      N2723   1.157       .  T
C2722      N2724   1.157       .  T
C2725      C2726   1.391       .  A
C2725      C2730   1.403       .  A
C2726      C2727   1.398       .  A
C2726      H2731   1.086       .  S
C2727      C2728   1.431       .  A
C2727      C2734   1.440       .  S
C2728      C2729   1.416       .  A
C2729      C2730   1.401       .  A
C2729      H2732   1.082       .  S
C2730      C2733   1.444       .  S
C2733      N2735   1.157       .  T
C2734      N2736   1.157       .  T
C2737      C2738   1.393       .  A
C2737      C2742   1.404       .  A
C2738      C2739   1.401       .  A
C2738      H2743   1.086       .  S
C2739      C2740   1.434       .  A
C2739      C2746   1.443       .  S
C2740      C2741   1.416       .  A
C2741      C2742   1.404       .  A
C2741      H2744   1.081       .  S
C2742      C2745   1.445       .  S
C2746      N2748   1.158       .  T
C2749      C2750   1.404       .  A
C2749      C2754   1.410       .  A
C2750      C2751   1.388       .  A
C2750      H2755   1.085       .  S
C2751      C2752   1.407       .  A
C2751      C2758   1.446       .  S
C2752      C2753   1.408       .  A
C2753      C2754   1.408       .  A
C2753      H2756   1.084       .  S
C2754      C2757   1.443       .  S
C2757      N2759   1.157       .  T
C2758      N2760   1.157       .  T
C2761      C2762   1.396       .  A
C2761      C2766   1.413       .  A
C2762      C2763   1.386       .  A
C2762      H2767   1.086       .  S
C2763      C2764   1.425       .  A
C2763      C2770   1.447       .  S
C2764      C2765   1.409       .  A
C2765      C2766   1.411       .  A
C2765      H2768   1.084       .  S
C2766      C2769   1.442       .  S
C2769      N2771   1.157       .  T
C2773      C2774   1.412       .  A
C2773      C2778   1.426       .  A
C2774      C2775   1.415       .  A
C2774      H2779   1.084       .  S
C2775      C2776   1.412       .  A
C2775      C2782   1.442       .  S
C2776      C2777   1.392       .  A
C2777      C2778   1.380       .  A
C2777      H2780   1.087       .  S
C2778      C2781   1.448       .  S
C2781      N2783   1.157       .  T
C2782      N2784   1.157       .  T
C2785      C2786   1.396       .  A
C2785      C2790   1.409       .  A
C2786      C2787   1.395       .  A
C2786      H2791   1.086       .  S
C2787      C2788   1.423       .  A
C2787      C2794   1.444       .  S
C2788      C2789   1.411       .  A
C2789      C2790   1.409       .  A
C2789      H2792   1.084       .  S
C2790      C2793   1.443       .  S
C2793      N2795   1.157       .  T
C2794      N2796   1.157       .  T
C2797      C2798   1.410       .  A
C2797      C2802   1.416       .  A
C2798      C2799   1.410       .  A
C2798      H2803   1.084       .  S
C2799      C2800   1.413       .  A
C2799      C2806   1.442       .  S
C2800      C2801   1.406       .  A
C2801      C2802   1.393       .  A
C2801      H2804   1.085       .  S
C2802      C2805   1.446       .  S
C2805      N2807   1.157       .  T
C2806      N2808   1.157       .  T
C2809      C2810   1.413       .  A
C2809      C2814   1.421       .  A
C2810      C2811   1.404       .  A
C2810      H2815   1.084       .  S
C2811      C2812   1.406       .  A
C2811      C2818   1.444       .  S
C2812      C2813   1.395       .  A
C2813      C2814   1.398       .  A
C2813      H2816   1.085       .  S
C2814      C2817   1.439       .  S
C2817      N2819   1.156       .  T
C2818      N2820   1.157       .  T
C2821      C2822   1.410       .  A
C2821      C2826   1.416       .  A
C2822      C2823   1.393       .  A
C2822      H2827   1.084       .  S
C2823      C2824   1.408       .  A
C2823      C2830   1.445       .  S
C2824      C2825   1.407       .  A
C2825      C2826   1.409       .  A
C2825      H2828   1.085       .  S
C2826      C2829   1.443       .  S
C2829      N2831   1.157       .  T
C2830      N2832   1.157       .  T
