geometry optimzed in LAMMPS
_audit_creation_date              2020-12-01 
_audit_creation_method            'lammps2cif' 
_symmetry_space_group_name_H-M    'P1' 
_symmetry_Int_Tables_number       1 
_symmetry_cell_setting            triclinic 
loop_ 
_symmetry_equiv_pos_as_xyz 
  x,y,z 
_cell_length_a                    68.9209625 
_cell_length_b                    68.78388111204791 
_cell_length_c                    68.70153908310638 
_cell_angle_alpha                 89.97597071266523 
_cell_angle_beta                  89.97058578009113 
_cell_angle_gamma                 89.91440121340298 
loop_ 
_atom_site_label 
_atom_site_type_symbol 
_atom_site_fract_x 
_atom_site_fract_y 
_atom_site_fract_z 
_atom_site_charge 
C1          C  0.68504167  0.68568339  0.67794991     0.03300
C2          C  0.69261812  0.66898603  0.68685103    -0.12800
C3          C  0.68307123  0.66061700  0.70279760     0.00800
C4          C  0.66583112  0.66895663  0.70977952    -0.11300
C5          C  0.65820921  0.68567285  0.70089538     0.03300
C6          C  0.66785769  0.69398905  0.68499254    -0.10800
H7          H  0.70597551  0.66261416  0.68148019     0.08900
H8          H  0.65845399  0.66254814  0.72214956     0.06500
H9          H  0.66208550  0.70699660  0.67820671     0.06300
C10         C  0.27400589  0.69276514  0.28712081     0.03300
C11         C  0.26743887  0.67591739  0.27765830    -0.12800
C12         C  0.27805036  0.66796637  0.26208902     0.00800
C13         C  0.29520840  0.67701113  0.25595354    -0.11300
C14         C  0.30181030  0.69384798  0.26527286     0.03300
C15         C  0.29116182  0.70174866  0.28075947    -0.10800
H16         H  0.25436677  0.66870482  0.28273093     0.08900
H17         H  0.30364243  0.67070609  0.24423887     0.06500
H18         H  0.29643000  0.71459684  0.28811612     0.09500
C19         C  0.66600756  0.27897258  0.26922222     0.03300
C20         C  0.67585280  0.27134356  0.28538087    -0.12800
C21         C  0.69268349  0.28041773  0.29231577     0.00800
C22         C  0.69983047  0.29697919  0.28287866    -0.11300
C23         C  0.68990392  0.30494669  0.26692312     0.03300
C24         C  0.67295329  0.29587587  0.26014266    -0.10800
H25         H  0.67029036  0.25854187  0.29268935     0.08900
H26         H  0.71282476  0.30399028  0.28829749     0.06500
H27         H  0.66510585  0.30202789  0.24793445     0.06300
C28         C  0.30878733  0.27390374  0.70156777     0.03300
C29         C  0.30350363  0.29145440  0.71062765    -0.12800
C30         C  0.28827833  0.30275862  0.70309882     0.00800
C31         C  0.27842319  0.29656749  0.68637275    -0.11300
C32         C  0.28359723  0.27912140  0.67720234     0.03300
C33         C  0.29872272  0.26778143  0.68488347    -0.10800
H34         H  0.31118418  0.29627662  0.72350632     0.08900
H35         H  0.26663156  0.30525683  0.68057665     0.06500
H36         H  0.30270427  0.25424895  0.67784447     0.06300
C37         C  0.27050087  0.69533441  0.65652312     0.03300
C38         C  0.26319891  0.67923293  0.66677919    -0.12800
C39         C  0.27195824  0.67335904  0.68427927     0.00800
C40         C  0.28793955  0.68359773  0.69144872    -0.11300
C41         C  0.29525804  0.69968178  0.68137727     0.03300
C42         C  0.28649453  0.70557683  0.66392120    -0.10800
H43         H  0.25096384  0.67119318  0.66105788     0.08900
H44         H  0.29482397  0.67891996  0.70485322     0.06500
H45         H  0.29219923  0.71796866  0.65603756     0.06300
C46         C  0.69642496  0.69903161  0.31389356     0.03300
C47         C  0.68027281  0.70801143  0.30533753    -0.12800
C48         C  0.67193427  0.70026324  0.28844734     0.00800
C49         C  0.67982615  0.68344363  0.28004994    -0.11300
C50         C  0.69603741  0.67437479  0.28844373     0.03300
C51         C  0.70432295  0.68222325  0.30537219    -0.10800
H52         H  0.67405351  0.72090458  0.31194836     0.08900
H53         H  0.67329351  0.67735319  0.26706784     0.06500
H54         H  0.71681867  0.67523888  0.31193185     0.06300
C55         C  0.67216456  0.27869568  0.68468585     0.03300
C56         C  0.68079122  0.27192382  0.66748701    -0.12800
C57         C  0.69764130  0.28076424  0.66027823     0.00800
C58         C  0.70587199  0.29644876  0.67029329    -0.11300
C59         C  0.69735435  0.30328715  0.68751651     0.03300
C60         C  0.68047433  0.29440277  0.69468964    -0.10800
H61         H  0.67445942  0.25973963  0.65978064     0.08900
H62         H  0.71894590  0.30323666  0.66476657     0.06500
H63         H  0.67387950  0.29964145  0.70802036     0.06300
N64         N  0.22409730  0.51741916  0.18528591    -0.27100
N65         N  0.23103638  0.50861598  0.20093217    -0.34900
C66         C  0.23940056  0.52191199  0.21257617     0.01300
C67         C  0.23759226  0.53990343  0.20382324     0.07300
C68         C  0.22780914  0.53659166  0.18658126    -0.05800
H69         H  0.24584545  0.51879664  0.22654890     0.08000
H70         H  0.22335301  0.54731893  0.17603726     0.09200
Cu71       Cu  0.22770441  0.47915915  0.20646083     0.44200
Cu72       Cu  0.20875503  0.50313315  0.16353772     0.42000
Cu73       Cu  0.19900238  0.45183391  0.17201839     0.43900
N74         N  0.22177782  0.44974715  0.20943103    -0.34500
N75         N  0.21140340  0.43965215  0.19679491    -0.28700
C76         C  0.21091091  0.42093278  0.20253354    -0.04800
C77         C  0.22136741  0.41927086  0.21964619     0.07400
C78         C  0.22807280  0.43777586  0.22357546     0.01200
H79         H  0.20386366  0.40933237  0.19462125     0.08800
H80         H  0.23733420  0.44210222  0.23551639     0.07900
N81         N  0.18813429  0.46744245  0.14846826    -0.35900
N82         N  0.19192131  0.48601738  0.14521340    -0.28100
C83         C  0.18263662  0.49168992  0.12892740    -0.03300
C84         C  0.17248009  0.47595576  0.12166016     0.05300
C85         C  0.17627524  0.46084010  0.13438721     0.03400
H86         H  0.18303874  0.50622471  0.12296633     0.08500
H87         H  0.17079159  0.44615692  0.13349773     0.07300
C88         C  0.09175518  0.48122226  0.96475043     0.03300
C89         C  0.07141388  0.48156904  0.96425787    -0.12800
C90         C  0.06059350  0.47916279  0.98144154     0.00800
C91         C  0.07048383  0.47672552  0.99924030    -0.11300
C92         C  0.09086877  0.47701035  0.99986343     0.03300
C93         C  0.10140177  0.47906185  0.98255097    -0.10800
H94         H  0.06403008  0.48373637  0.95050470     0.08900
H95         H  0.06234238  0.47499914  0.01262411     0.06500
H96         H  0.11713179  0.47919018  0.98295323     0.06300
N97         N  0.22329306  0.53022335  0.77782198    -0.27100
N98         N  0.23205852  0.52075695  0.76353277    -0.34900
C99         C  0.23919448  0.53377735  0.75076640     0.01300
C100        C  0.23475756  0.55225029  0.75741549     0.07300
C101        C  0.22469102  0.54946801  0.77458197    -0.05800
H102        H  0.24689187  0.53008713  0.73755171     0.08000
H103        H  0.21852018  0.56058458  0.78383253     0.09200
Cu104      Cu  0.23375704  0.49052529  0.76192079     0.44200
Cu105      Cu  0.20897943  0.51673612  0.80068098     0.42000
Cu106      Cu  0.21036075  0.46430049  0.80128720     0.43900
N107        N  0.23389488  0.46030431  0.76438382    -0.34500
N108        N  0.22547777  0.45084136  0.77886751    -0.28700
C109        C  0.22851426  0.43164463  0.77659424    -0.04800
C110        C  0.23935593  0.42885877  0.75988054     0.07400
C111        C  0.24249845  0.44732347  0.75247996     0.01200
H112        H  0.22335044  0.42055997  0.78644080     0.08800
H113        H  0.25068108  0.45104851  0.73958648     0.07900
N114        N  0.19529394  0.48080213  0.82160299    -0.35900
N115        N  0.19469988  0.50002060  0.82130958    -0.28100
C116        C  0.18337715  0.50630479  0.83598844    -0.03300
C117        C  0.17659529  0.49025060  0.84596198     0.05300
C118        C  0.18441373  0.47432602  0.83652180     0.03400
H119        H  0.18025619  0.52139054  0.83910418     0.08500
H120        H  0.18222450  0.45918671  0.84011692     0.07300
N121        N  0.75365495  0.51882758  0.78273725    -0.27100
N122        N  0.74518979  0.50905232  0.76853686    -0.34900
C123        C  0.73467394  0.52143144  0.75765229     0.01300
C124        C  0.73667930  0.53983109  0.76542742     0.07300
C125        C  0.74882012  0.53771753  0.78127323    -0.05800
H126        H  0.72675701  0.51746234  0.74465498     0.08000
H127        H  0.75423724  0.54912858  0.79063810     0.09200
Cu128      Cu  0.74977469  0.47968967  0.76382728     0.44200
Cu129      Cu  0.77246858  0.50609693  0.80240938     0.42000
Cu130      Cu  0.78449069  0.45497150  0.79514536     0.43900
N131        N  0.75687946  0.45054902  0.76133900    -0.34500
N132        N  0.76945938  0.44139269  0.77265055    -0.28700
C133        C  0.76958563  0.42238448  0.76789384    -0.04800
C134        C  0.75657156  0.41961754  0.75281688     0.07400
C135        C  0.74875661  0.43770927  0.74908295     0.01200
H136        H  0.77787676  0.41132519  0.77535838     0.08800
H137        H  0.73736577  0.44113391  0.73881837     0.07900
N138        N  0.79573492  0.47203552  0.81749051    -0.35900
N139        N  0.79126782  0.49058349  0.81999716    -0.28100
C140        C  0.80006993  0.49720381  0.83613114    -0.03300
C141        C  0.81055678  0.48212854  0.84418396     0.05300
C142        C  0.80749123  0.46634658  0.83208714     0.03400
H143        H  0.79840379  0.51171359  0.84193193     0.08500
H144        H  0.81287841  0.45174841  0.83407894     0.07300
N145        N  0.76020679  0.53240307  0.20277031    -0.27100
N146        N  0.74864321  0.52208643  0.21414324    -0.34900
C147        C  0.73967735  0.53405878  0.22675482     0.01300
C148        C  0.74587515  0.55282036  0.22315827     0.07300
C149        C  0.75889903  0.55126863  0.20788309    -0.05800
H150        H  0.72921842  0.52949308  0.23752745     0.08000
H151        H  0.76649427  0.56299495  0.20076177     0.09200
Cu152      Cu  0.74502539  0.49227220  0.21184700     0.44200
Cu153      Cu  0.77649172  0.52038509  0.18020683     0.42000
Cu154      Cu  0.77211750  0.46803817  0.17399652     0.43900
N155        N  0.74435467  0.46248112  0.20745349    -0.34500
N156        N  0.75443193  0.45352530  0.19373554    -0.28700
C157        C  0.75136094  0.43425063  0.19514513    -0.04800
C158        C  0.73871486  0.43100082  0.21044895     0.07400
C159        C  0.73456118  0.44918860  0.21792300     0.01200
H160        H  0.75795666  0.42341993  0.18586574     0.08800
H161        H  0.72538765  0.45248069  0.23025264     0.07900
N162        N  0.78838034  0.48582174  0.15575143    -0.35900
N163        N  0.79006394  0.50485126  0.15798828    -0.28100
C164        C  0.80109160  0.51198341  0.14344817    -0.03300
C165        C  0.80656428  0.49671662  0.13149897     0.05300
C166        C  0.79826428  0.48036809  0.13975835     0.03400
H167        H  0.80454333  0.52718444  0.14149296     0.08500
H168        H  0.79913646  0.46561860  0.13437813     0.07300
C169        C  0.88462658  0.48969300  0.00720591     0.03300
C170        C  0.90501003  0.48864444  0.00580713    -0.12800
C171        C  0.91406753  0.48614119  0.98756142     0.00800
C172        C  0.90256719  0.48501770  0.97077429    -0.11300
C173        C  0.88230196  0.48619647  0.97189561     0.03300
C174        C  0.87340239  0.48832763  0.99017019    -0.10800
H175        H  0.91376925  0.48975111  0.01884553     0.08900
H176        H  0.90945462  0.48322341  0.95669406     0.06500
H177        H  0.85771599  0.48902382  0.99113308     0.06300
N178        N  0.44017100  0.19924690  0.21602581    -0.27100
N179        N  0.45045334  0.21428679  0.22212666    -0.34900
C180        C  0.43836448  0.22753923  0.23000250     0.01300
C181        C  0.41962292  0.22046605  0.22879715     0.07300
C182        C  0.42129629  0.20249636  0.21993048    -0.05800
H183        H  0.44290947  0.24111874  0.23648351     0.08000
H184        H  0.40966560  0.19244507  0.21672552     0.09200
Cu185      Cu  0.48058242  0.21556726  0.22024089     0.44200
Cu186      Cu  0.45228216  0.17498590  0.20256207     0.42000
Cu187      Cu  0.50460167  0.17496658  0.19625242     0.43900
N188        N  0.51059142  0.21262680  0.21820476    -0.34500
N189        N  0.51940581  0.19780522  0.20964197    -0.28700
C190        C  0.53875145  0.19995615  0.21160451    -0.04800
C191        C  0.54220164  0.21694364  0.22181741     0.07400
C192        C  0.52406760  0.22458904  0.22576837     0.01200
H193        H  0.54947887  0.18981126  0.20622626     0.08800
H194        H  0.52089614  0.23770063  0.23385482     0.07900
N195        N  0.48634755  0.15356636  0.18492008    -0.35900
N196        N  0.46732467  0.15339957  0.18758247    -0.28100
C197        C  0.45978332  0.13777214  0.17852700    -0.03300
C198        C  0.47474396  0.12767125  0.16969122     0.05300
C199        C  0.49137046  0.13807996  0.17400443     0.03400
H200        H  0.44450440  0.13418434  0.17815587     0.08500
H201        H  0.50602239  0.13467960  0.16946994     0.07300
C202        C  0.47591252  0.00400176  0.09054257     0.03300
C203        C  0.47761296  0.98651370  0.10097226    -0.12800
C204        C  0.47997456  0.96877893  0.09110910     0.00800
C205        C  0.48052546  0.96861803  0.07070216    -0.11300
C206        C  0.47857755  0.98594943  0.06011901     0.03300
C207        C  0.47628875  0.00364137  0.07009929    -0.10800
H208        H  0.47736542  0.98673597  0.11675218     0.08900
H209        H  0.48253814  0.95498676  0.06304357     0.06500
H210        H  0.47505589  0.01710421  0.06199257     0.06300
N211        N  0.52914212  0.77806822  0.21750385    -0.27100
N212        N  0.51945271  0.76439128  0.22689682    -0.34900
C213        C  0.53203936  0.75329188  0.23690391     0.01300
C214        C  0.55052130  0.76032490  0.23362599     0.07300
C215        C  0.54819325  0.77604344  0.22129183    -0.05800
H216        H  0.52807018  0.74085836  0.24565380     0.08000
H217        H  0.55950061  0.78509131  0.21525838     0.09200
Cu218      Cu  0.48968486  0.76088481  0.22522728     0.44200
Cu219      Cu  0.51599520  0.79857512  0.19972633     0.42000
Cu220      Cu  0.46348951  0.79548402  0.19555316     0.43900
N221        N  0.45994508  0.75998826  0.22120083    -0.34500
N222        N  0.45028341  0.77262289  0.21037608    -0.28700
C223        C  0.43123080  0.76842621  0.21131099    -0.04800
C224        C  0.42890730  0.75237210  0.22320874     0.07400
C225        C  0.44735439  0.74741009  0.22927079     0.01200
H226        H  0.41989514  0.77667381  0.20421507     0.08800
H227        H  0.45128886  0.73583159  0.23916306     0.07900
N228        N  0.48015904  0.81724933  0.18271767    -0.35900
N229        N  0.49929032  0.81818322  0.18405416    -0.28100
C230        C  0.50559433  0.83400305  0.17442603    -0.03300
C231        C  0.48967725  0.84350419  0.16673143     0.05300
C232        C  0.47379275  0.83253801  0.17226699     0.03400
H233        H  0.52061955  0.83844828  0.17340152     0.08500
H234        H  0.45870724  0.83554859  0.16906560     0.07300
N235        N  0.51512332  0.77149446  0.76086196    -0.27100
N236        N  0.50515342  0.75734771  0.75256716    -0.34900
C237        C  0.51757142  0.74438133  0.74484223     0.01300
C238        C  0.53624061  0.75070747  0.74847309     0.07300
C239        C  0.53418706  0.76792643  0.75864936    -0.05800
H240        H  0.51333143  0.73148514  0.73691058     0.08000
H241        H  0.54568737  0.77725983  0.76387895     0.09200
Cu242      Cu  0.47517942  0.75679181  0.75160813     0.44200
Cu243      Cu  0.50215975  0.79510322  0.77434982     0.42000
Cu244      Cu  0.44933907  0.79719438  0.77377697     0.43900
N245        N  0.44532718  0.75975415  0.75124486    -0.34500
N246        N  0.43579568  0.77448778  0.75912696    -0.28700
C247        C  0.41674701  0.77242854  0.75530640    -0.04800
C248        C  0.41428683  0.75558371  0.74457319     0.07400
C249        C  0.43266673  0.74793908  0.74226849     0.01200
H250        H  0.40560738  0.78265517  0.75957216     0.08800
H251        H  0.43662312  0.73508591  0.73411356     0.07900
N252        N  0.46685362  0.81786412  0.78715330    -0.35900
N253        N  0.48603513  0.81704595  0.78723301    -0.28100
C254        C  0.49301074  0.83228315  0.79725826    -0.03300
C255        C  0.47751005  0.84320390  0.80385945     0.05300
C256        C  0.46113625  0.83368705  0.79717559     0.03400
H257        H  0.50825609  0.83510195  0.79972638     0.08500
H258        H  0.44618023  0.83781402  0.79964218     0.07300
N259        N  0.45340711  0.18594061  0.75612948    -0.27100
N260        N  0.46112127  0.20106900  0.74714552    -0.34900
C261        C  0.44672349  0.21295079  0.74127032     0.01300
C262        C  0.42913402  0.20493430  0.74689823     0.07300
C263        C  0.43396183  0.18781827  0.75632311    -0.05800
H264        H  0.44886504  0.22639775  0.73341422     0.08000
H265        H  0.42409835  0.17750071  0.76284067     0.09200
Cu266      Cu  0.49098712  0.20465206  0.74346967     0.44200
Cu267      Cu  0.46972060  0.16335405  0.76747952     0.42000
Cu268      Cu  0.52185456  0.16522209  0.76151334     0.43900
N269        N  0.52123326  0.20450627  0.74151104    -0.34500
N270        N  0.53233110  0.19009235  0.74782733    -0.28700
C271        C  0.55101981  0.19432649  0.74402028    -0.04800
C272        C  0.55173021  0.21225647  0.73496989     0.07400
C273        C  0.53262983  0.21831167  0.73358028     0.01200
H274        H  0.56317823  0.18499629  0.74747682     0.08800
H275        H  0.52739476  0.23163067  0.72706077     0.07900
N276        N  0.50756912  0.14298025  0.77620900    -0.35900
N277        N  0.48849807  0.14250342  0.77830920    -0.28100
C278        C  0.48367751  0.12729743  0.78956869    -0.03300
C279        C  0.50048059  0.11772125  0.79485863     0.05300
C280        C  0.51539932  0.12799375  0.78613761     0.03400
H281        H  0.46906473  0.12392010  0.79422800     0.08500
H282        H  0.53079836  0.12529137  0.78760885     0.07300
C283        C  0.48743921  0.96660682  0.88221930     0.03300
C284        C  0.48619851  0.96647117  0.90259726    -0.12800
C285        C  0.48833714  0.98370972  0.91332879     0.00800
C286        C  0.49182047  0.00123724  0.90335289    -0.11300
C287        C  0.49225507  0.00162450  0.88294207     0.03300
C288        C  0.49008547  0.98429738  0.87246289    -0.10800
H289        H  0.48349026  0.95288603  0.91010863     0.08900
H290        H  0.49366798  0.01464088  0.91142098     0.06500
H291        H  0.49045609  0.98459084  0.85668843     0.06300
C292        C  0.27252327  0.30205770  0.28995628     0.03300
C293        C  0.26539216  0.29267918  0.30661244    -0.12800
C294        C  0.27485865  0.27616883  0.31400916     0.00800
C295        C  0.29157144  0.26910483  0.30468046    -0.11300
C296        C  0.29884063  0.27847100  0.28806164     0.03300
C297        C  0.28927562  0.29493575  0.28075431    -0.10800
H298        H  0.25248312  0.29816889  0.31375663     0.08900
H299        H  0.29888074  0.25632982  0.31031978     0.06500
H300        H  0.29479526  0.30213393  0.26785297     0.06300
C301        C  0.96777388  0.09061749  0.48066629     0.03300
C302        C  0.96762860  0.07023072  0.48006424    -0.12800
C303        C  0.98477628  0.05954651  0.48317903     0.00800
C304        C  0.00225664  0.06967687  0.48640776    -0.11300
C305        C  0.00266416  0.09012890  0.48616887     0.03300
C306        C  0.98533625  0.10048428  0.48343790    -0.10800
H307        H  0.95407704  0.06268384  0.47749492     0.08900
H308        H  0.01556572  0.06166898  0.48896844     0.06500
H309        H  0.98549565  0.11624477  0.48358952     0.06300
N310        N  0.19809302  0.21092342  0.53709878    -0.27100
N311        N  0.21293405  0.21761479  0.52688803    -0.34900
C312        C  0.22519430  0.22698834  0.53885116     0.01300
C313        C  0.21774811  0.22622438  0.55750281     0.07300
C314        C  0.20054196  0.21594749  0.55590724    -0.05800
H315        H  0.23849285  0.23395343  0.53428807     0.08000
H316        H  0.19061506  0.21236939  0.56752171     0.09200
Cu317      Cu  0.21585719  0.21442446  0.49705014     0.44200
Cu318      Cu  0.17518839  0.19538176  0.52473690     0.42000
Cu319      Cu  0.17736358  0.19011935  0.47183196     0.43900
N320        N  0.21499871  0.21158670  0.46705435    -0.34500
N321        N  0.20077146  0.20276164  0.45767776    -0.28700
C322        C  0.20363405  0.20471872  0.43838899    -0.04800
C323        C  0.22051409  0.21519579  0.43559579     0.07400
C324        C  0.22730023  0.21938458  0.45403011     0.01200
H325        H  0.19374182  0.19965120  0.42726907     0.08800
H326        H  0.23975135  0.22821861  0.45770102     0.07900
N327        N  0.15513023  0.17922101  0.48904209    -0.35900
N328        N  0.15426455  0.18092161  0.50821468    -0.28100
C329        C  0.13792101  0.17224357  0.51460973    -0.03300
C330        C  0.12808641  0.16485291  0.49866787     0.05300
C331        C  0.13940197  0.16953782  0.48274642     0.03400
H332        H  0.13345243  0.17152623  0.52964387     0.08500
H333        H  0.13640466  0.16618196  0.46768916     0.07300
N334        N  0.77690705  0.21851307  0.43563568    -0.27100
N335        N  0.76211471  0.22544942  0.44577196    -0.34900
C336        C  0.74917181  0.23344214  0.43348413     0.01300
C337        C  0.75621124  0.23146104  0.41476701     0.07300
C338        C  0.77380107  0.22197071  0.41661041    -0.05800
H339        H  0.73584341  0.24050848  0.43787544     0.08000
H340        H  0.78368698  0.21806920  0.40502598     0.09200
Cu341      Cu  0.76068890  0.22484245  0.47588753     0.44200
Cu342      Cu  0.80085213  0.20508954  0.44816666     0.42000
Cu343      Cu  0.80228869  0.20494665  0.50102965     0.43900
N344        N  0.76351777  0.22471232  0.50590548    -0.34500
N345        N  0.77882835  0.21772096  0.51516984    -0.28700
C346        C  0.77646382  0.22054536  0.53442391    -0.04800
C347        C  0.75880729  0.22971936  0.53733330     0.07400
C348        C  0.75100157  0.23213372  0.51896647     0.01200
H349        H  0.78686044  0.21641252  0.54543411     0.08800
H350        H  0.73741618  0.23910856  0.51534157     0.07900
N351        N  0.82333606  0.19208254  0.48354120    -0.35900
N352        N  0.82283636  0.19212059  0.46428691    -0.28100
C353        C  0.83806630  0.18188703  0.45746523    -0.03300
C354        C  0.84859717  0.17513137  0.47319890     0.05300
C355        C  0.83887195  0.18180274  0.48948155     0.03400
H356        H  0.84094129  0.17913148  0.44226957     0.08500
H357        H  0.84253464  0.17897781  0.50450571     0.07300
N358        N  0.77332441  0.75769356  0.54153130    -0.27100
N359        N  0.75937004  0.74913506  0.53146129    -0.34900
C360        C  0.74713223  0.74029205  0.54386604     0.01300
C361        C  0.75371783  0.74338574  0.56257903     0.07300
C362        C  0.77034150  0.75443252  0.56063366    -0.05800
H363        H  0.73440634  0.73215927  0.53957485     0.08000
H364        H  0.77953371  0.75976184  0.57222435     0.09200
Cu365      Cu  0.75735315  0.74952261  0.50130624     0.44200
Cu366      Cu  0.79563357  0.77368419  0.52889594     0.42000
Cu367      Cu  0.79371849  0.77729201  0.47621760     0.43900
N368        N  0.75854920  0.75189120  0.47119769    -0.34500
N369        N  0.77184120  0.76225348  0.46201052    -0.28700
C370        C  0.76889234  0.76085581  0.44270294    -0.04800
C371        C  0.75300737  0.74897101  0.43957929     0.07400
C372        C  0.74681257  0.74354410  0.45797301     0.01200
H373        H  0.77772858  0.76783046  0.43176730     0.08800
H374        H  0.73480689  0.73406455  0.46146617     0.07900
N375        N  0.81475468  0.79058136  0.49319782    -0.35900
N376        N  0.81562338  0.78923840  0.51238596    -0.28100
C377        C  0.83111939  0.79932233  0.51875312    -0.03300
C378        C  0.84036403  0.80738509  0.50277855     0.05300
C379        C  0.82961286  0.80153464  0.48685156     0.03400
H380        H  0.83535449  0.80065257  0.53383055     0.08500
H381        H  0.83248838  0.80484653  0.47175026     0.07300
N382        N  0.19696448  0.76075483  0.50935834    -0.27100
N383        N  0.21030560  0.75171119  0.49887742    -0.34900
C384        C  0.22229501  0.74196601  0.51090469     0.01300
C385        C  0.21615011  0.74506667  0.52981019     0.07300
C386        C  0.20007559  0.75700933  0.52832973    -0.05800
H387        H  0.23439029  0.73308831  0.50623237     0.08000
H388        H  0.19116285  0.76234604  0.54012441     0.09200
Cu389      Cu  0.21110979  0.75273303  0.46866470     0.44200
Cu390      Cu  0.17465144  0.77701979  0.49723657     0.42000
Cu391      Cu  0.17343220  0.78052622  0.44427687     0.43900
N392        N  0.20910623  0.75564476  0.43862868    -0.34500
N393        N  0.19553487  0.76586893  0.42961481    -0.28700
C394        C  0.19794193  0.76394854  0.41022809    -0.04800
C395        C  0.21376095  0.75194827  0.40698219     0.07400
C396        C  0.22043799  0.74694516  0.42527546     0.01200
H397        H  0.18844782  0.77015958  0.39935063     0.08800
H398        H  0.23226385  0.73714652  0.42862918     0.07900
N399        N  0.15235481  0.79234265  0.46257678    -0.35900
N400        N  0.15282670  0.79097210  0.48178802    -0.28100
C401        C  0.13695164  0.79963115  0.48924529    -0.03300
C402        C  0.12600477  0.80679645  0.47400746     0.05300
C403        C  0.13615641  0.80198465  0.45731154     0.03400
H404        H  0.13362615  0.80060262  0.50456114     0.08500
H405        H  0.13202782  0.80513691  0.44250035     0.07300
C406        C  0.96494238  0.88185363  0.48531917     0.03300
C407        C  0.96539342  0.90225102  0.48467567    -0.12800
C408        C  0.98300337  0.91215695  0.48197421     0.00800
C409        C  0.00024117  0.90141885  0.47982032    -0.11300
C410        C  0.99994184  0.88102489  0.48071271     0.03300
C411        C  0.98227295  0.87130961  0.48338886    -0.10800
H412        H  0.95205281  0.91042262  0.48649055     0.08900
H413        H  0.01391594  0.90892751  0.47784177     0.06500
H414        H  0.98204742  0.85557444  0.48425694     0.06300
C415        C  0.10746849  0.81751312  0.47532500     0.01600
C416        C  0.08998518  0.80740820  0.47857296     0.04400
C417        C  0.07229813  0.81764618  0.47952899    -0.11700
C418        C  0.07207397  0.83802925  0.47742047     0.23700
C419        C  0.08961069  0.84816124  0.47458787    -0.12300
C420        C  0.10726801  0.83790865  0.47345816     0.05100
C421        C  0.05341422  0.84883961  0.47826364     0.27500
C422        C  0.04266909  0.85212623  0.46111096    -0.12900
C423        C  0.02509681  0.86258172  0.46189354     0.05600
C424        C  0.01827427  0.86983868  0.47981233    -0.08900
C425        C  0.02887436  0.86629929  0.49699399     0.06400
C426        C  0.04643539  0.85586188  0.49621726    -0.13300
Br427      Br  0.08936415  0.87612338  0.47247662    -0.05400
Br428      Br  0.09027747  0.77952084  0.48150623     0.00300
Br429      Br  0.01025681  0.86691940  0.43849960     0.00700
Br430      Br  0.06100629  0.85110837  0.51971021    -0.03700
Br431      Br  0.13128846  0.85180408  0.46981825     0.00800
Br432      Br  0.04831049  0.80385937  0.48376832    -0.03000
Br433      Br  0.05212156  0.84226195  0.43659488    -0.03800
Br434      Br  0.01911686  0.87552332  0.52163733     0.00100
C435        C  0.85823681  0.81928637  0.50243327     0.01600
C436        C  0.85756639  0.83859795  0.49551491     0.04400
C437        C  0.87478833  0.84942739  0.49363389    -0.11700
C438        C  0.89275002  0.84101117  0.49865454     0.23700
C439        C  0.89337470  0.82195011  0.50616014    -0.12300
C440        C  0.87616761  0.81108847  0.50803150     0.05100
C441        C  0.91108188  0.85183128  0.49520070     0.27500
C442        C  0.91998484  0.85114218  0.47673251    -0.12900
C443        C  0.93753707  0.86106067  0.47343802     0.05600
C444        C  0.94637719  0.87153993  0.48867634    -0.08900
C445        C  0.93753801  0.87209256  0.50719416     0.06400
C446        C  0.91981674  0.86243649  0.51038451    -0.13300
Br447      Br  0.91797761  0.81058854  0.51331043    -0.05400
Br448      Br  0.83299671  0.85038204  0.48894476     0.00300
Br449      Br  0.94931630  0.86055261  0.44795683     0.00700
Br450      Br  0.90744223  0.86364794  0.53553640    -0.03700
Br451      Br  0.87740909  0.78457291  0.51713101     0.00800
Br452      Br  0.87392667  0.87573097  0.48390929    -0.03000
Br453      Br  0.90808281  0.83646029  0.45600657    -0.03800
Br454      Br  0.95015883  0.88541272  0.52840715     0.00100
C455        C  0.98434090  0.03781376  0.48310267     0.01600
C456        C  0.97206086  0.02755449  0.49605972     0.04400
C457        C  0.97107537  0.00708211  0.49532517    -0.11700
C458        C  0.98335258  0.99659063  0.48270193     0.23700
C459        C  0.99609465  0.00670619  0.47029591    -0.12300
C460        C  0.99602791  0.02717935  0.46991429     0.05100
C461        C  0.98309430  0.97491831  0.48258424     0.27500
C462        C  0.99274373  0.96443715  0.49733458    -0.12900
C463        C  0.99264374  0.94395481  0.49720206     0.05600
C464        C  0.98336408  0.93377731  0.48197752    -0.08900
C465        C  0.97404615  0.94429598  0.46699720     0.06400
C466        C  0.97364658  0.96478003  0.46747470    -0.13300
Br467      Br  0.01389897  0.99237334  0.45398366    -0.05400
Br468      Br  0.95727546  0.04126853  0.51562401     0.00300
Br469      Br  0.00467478  0.92992441  0.51832888     0.00700
Br470      Br  0.96009093  0.97904050  0.44745675    -0.03700
Br471      Br  0.01105173  0.04034978  0.45028098     0.00800
Br472      Br  0.95277988  0.99328603  0.51149712    -0.03000
Br473      Br  0.00630286  0.97824778  0.51763580    -0.03800
Br474      Br  0.96250515  0.93066665  0.44535492     0.00100
C475        C  0.86555999  0.16200658  0.47285094     0.01600
C476        C  0.88434293  0.16962128  0.47026101     0.04400
C477        C  0.90059554  0.15723107  0.47117889    -0.11700
C478        C  0.89807623  0.13711689  0.47420890     0.23700
C479        C  0.87923920  0.12942524  0.47622144    -0.12300
C480        C  0.86301402  0.14187957  0.47570146     0.05100
C481        C  0.91532203  0.12423330  0.47586469     0.27500
C482        C  0.92403259  0.11640218  0.45902746    -0.12900
C483        C  0.94114298  0.10527679  0.46057428     0.05600
C484        C  0.94943102  0.10172923  0.47898487    -0.08900
C485        C  0.94040893  0.10912434  0.49586199     0.06400
C486        C  0.92344556  0.12042727  0.49429718    -0.13300
Br487      Br  0.87577404  0.10185147  0.47988035    -0.05400
Br488      Br  0.88777866  0.19707906  0.46577651     0.00300
Br489      Br  0.95362631  0.09538189  0.43748119     0.00700
Br490      Br  0.91140701  0.13099784  0.51735462    -0.03700
Br491      Br  0.83724454  0.13142003  0.47884696     0.00800
Br492      Br  0.92640963  0.16779144  0.46881711    -0.03000
Br493      Br  0.91253655  0.12113270  0.43388422    -0.03800
Br494      Br  0.95127227  0.10367431  0.52115373     0.00100
C495        C  0.10935991  0.15433721  0.49837117     0.01600
C496        C  0.09294920  0.16297139  0.48963642     0.04400
C497        C  0.07546832  0.15250430  0.48811797    -0.11700
C498        C  0.07429280  0.13335323  0.49532641     0.23700
C499        C  0.09058053  0.12483385  0.50436241    -0.12300
C500        C  0.10806734  0.13531100  0.50592291     0.05100
C501        C  0.05602042  0.12207370  0.49310781     0.27500
C502        C  0.04236946  0.12148737  0.50837246    -0.12900
C503        C  0.02505892  0.11082148  0.50622567     0.05600
C504        C  0.02120257  0.10084234  0.48870452    -0.08900
C505        C  0.03474924  0.10174393  0.47331643     0.06400
C506        C  0.05219815  0.11212954  0.47559937    -0.13300
Br507      Br  0.08896064  0.09860378  0.51417204    -0.05400
Br508      Br  0.09426646  0.18935438  0.48016672     0.00300
Br509      Br  0.00666679  0.10981238  0.52735453     0.00700
Br510      Br  0.07089174  0.11295217  0.45468648    -0.03700
Br511      Br  0.13050003  0.12324733  0.51761430     0.00800
Br512      Br  0.05308885  0.16427654  0.47601530    -0.03000
Br513      Br  0.04739927  0.13553957  0.53212755    -0.03800
Br514      Br  0.02897838  0.08969174  0.44868591     0.00100
C515        C  0.22797436  0.22316389  0.41713509     0.01600
C516        C  0.24185771  0.21274254  0.40628235     0.04400
C517        C  0.24975638  0.22090955  0.38923701    -0.11700
C518        C  0.24364083  0.23944179  0.38295041     0.23700
C519        C  0.22948246  0.24969357  0.39363607    -0.12300
C520        C  0.22169816  0.24158569  0.41073098     0.05100
C521        C  0.25207783  0.24824380  0.36513271     0.27500
C522        C  0.26912564  0.25946514  0.36636366    -0.12900
C523        C  0.27665513  0.26851722  0.34960838     0.05600
C524        C  0.26721377  0.26627513  0.33154542    -0.08900
C525        C  0.25032661  0.25479009  0.33028184     0.06400
C526        C  0.24274766  0.24583696  0.34705878    -0.13300
Br527      Br  0.22091114  0.27493015  0.38485628    -0.05400
Br528      Br  0.25003315  0.18732662  0.41486526     0.00300
Br529      Br  0.29954736  0.28452271  0.35148496     0.00700
Br530      Br  0.21949285  0.23034230  0.34543186    -0.03700
Br531      Br  0.20249779  0.25574381  0.42549171     0.00800
Br532      Br  0.26907196  0.20688888  0.37452869    -0.03000
Br533      Br  0.28195263  0.26257762  0.39111705    -0.03800
Br534      Br  0.23776296  0.25105289  0.30549263     0.00100
C535        C  0.49428994  0.02018548  0.87227941     0.01600
C536        C  0.51265404  0.02891939  0.87016706     0.04400
C537        C  0.51476103  0.04561706  0.85849234    -0.11700
C538        C  0.49854957  0.05345464  0.84874254     0.23700
C539        C  0.48009132  0.04504241  0.85132399    -0.12300
C540        C  0.47794444  0.02852680  0.86319053     0.05100
C541        C  0.50085726  0.07021558  0.83533549     0.27500
C542        C  0.49672702  0.08918390  0.84184705    -0.12900
C543        C  0.49724543  0.10484366  0.82868755     0.05600
C544        C  0.50197098  0.10159424  0.80897294    -0.08900
C545        C  0.50684443  0.08273127  0.80262203     0.06400
C546        C  0.50621385  0.06704180  0.81577986    -0.13300
Br547      Br  0.45784036  0.05593516  0.83818185    -0.05400
Br548      Br  0.53498665  0.01755151  0.88269542     0.00300
Br549      Br  0.49160288  0.13081105  0.83772623     0.00700
Br550      Br  0.51196044  0.04103325  0.80694661    -0.03700
Br551      Br  0.45259031  0.01728824  0.86707659     0.00800
Br552      Br  0.53984444  0.05763765  0.85551386    -0.03000
Br553      Br  0.48993369  0.09354807  0.86873847    -0.03800
Br554      Br  0.51339506  0.07823100  0.77569952     0.00100
C555        C  0.47837944  0.86092505  0.81600257     0.01600
C556        C  0.47118622  0.87873555  0.80877692     0.04400
C557        C  0.47244067  0.89566360  0.82019111    -0.11700
C558        C  0.48105332  0.89490760  0.83876219     0.23700
C559        C  0.48810861  0.87713092  0.84607808    -0.12300
C560        C  0.48673155  0.86014577  0.83475333     0.05100
C561        C  0.48293187  0.91294763  0.85040675     0.27500
C562        C  0.50002499  0.92407730  0.84922905    -0.12900
C563        C  0.50163056  0.94150299  0.85981656     0.05600
C564        C  0.48583959  0.94819873  0.87112307    -0.08900
C565        C  0.46861957  0.93713392  0.87202453     0.06400
C566        C  0.46737972  0.91931509  0.86207716    -0.13300
Br567      Br  0.49960451  0.87616624  0.87166579    -0.05400
Br568      Br  0.46054182  0.88026395  0.78284998     0.00300
Br569      Br  0.52574064  0.95577665  0.85923865     0.00700
Br570      Br  0.44440530  0.90349678  0.86439835    -0.03700
Br571      Br  0.49567281  0.83571012  0.84529995     0.00800
Br572      Br  0.46259052  0.92006089  0.81038808    -0.03000
Br573      Br  0.52117249  0.91537611  0.83296907    -0.03800
Br574      Br  0.44626639  0.94685182  0.88592983     0.00100
C575        C  0.48633767  0.98342366  0.93491365     0.01600
C576        C  0.47240776  0.99539638  0.94417663     0.04400
C577        C  0.47123500  0.99592007  0.96462159    -0.11700
C578        C  0.48260814  0.98315728  0.97592349     0.23700
C579        C  0.49548378  0.97017683  0.96667161    -0.12300
C580        C  0.49803773  0.97093562  0.94635351     0.05100
C581        C  0.48149886  0.98380995  0.99754216     0.27500
C582        C  0.49676614  0.99220201  0.00831079    -0.12900
C583        C  0.49601177  0.99245132  0.02877624     0.05600
C584        C  0.47943748  0.98548483  0.03856234    -0.08900
C585        C  0.46395256  0.97753437  0.02777335     0.06400
C586        C  0.46523614  0.97615349  0.00736513    -0.13300
Br587      Br  0.50950145  0.95121285  0.98192930    -0.05400
Br588      Br  0.45396891  0.01024056  0.92904568     0.00300
Br589      Br  0.51809907  0.00147101  0.04342393     0.00700
Br590      Br  0.44489861  0.96344705  0.99286570    -0.03700
Br591      Br  0.51846860  0.95565784  0.93460263     0.00800
Br592      Br  0.45432566  0.01447005  0.97720479    -0.03000
Br593      Br  0.51864043  0.00359765  0.99497479    -0.03800
Br594      Br  0.44070647  0.96908989  0.04088952     0.00100
C595        C  0.48213305  0.95030941  0.10205530     0.01600
C596        C  0.49934010  0.94639486  0.11248881     0.04400
C597        C  0.50144320  0.92871340  0.12263623    -0.11700
C598        C  0.48639986  0.91486552  0.12234460     0.23700
C599        C  0.46936050  0.91861780  0.11166953    -0.12300
C600        C  0.46716235  0.93634097  0.10167084     0.05100
C601        C  0.48806857  0.89668948  0.13391260     0.27500
C602        C  0.49558398  0.87963155  0.12538926    -0.12900
C603        C  0.49636038  0.86225132  0.13621851     0.05600
C604        C  0.48956971  0.86188093  0.15558060    -0.08900
C605        C  0.48242988  0.87904900  0.16421404     0.06400
C606        C  0.48159344  0.89638956  0.15336874    -0.13300
Br607      Br  0.44900748  0.89939472  0.11088503    -0.05400
Br608      Br  0.52021231  0.96506360  0.11252543     0.00300
Br609      Br  0.50614156  0.83879137  0.12434246     0.00700
Br610      Br  0.47132350  0.91977285  0.16500221    -0.03700
Br611      Br  0.44327888  0.94175602  0.08809470     0.00800
Br612      Br  0.52492064  0.92330819  0.13692842    -0.03000
Br613      Br  0.50444182  0.88009882  0.09876066    -0.03800
Br614      Br  0.47433736  0.87895364  0.19110086     0.00100
C615        C  0.40175481  0.22950385  0.23662075     0.01600
C616        C  0.39233643  0.24448388  0.22625109     0.04400
C617        C  0.37528439  0.25301464  0.23376165    -0.11700
C618        C  0.36758910  0.24655368  0.25164766     0.23700
C619        C  0.37694146  0.23147522  0.26191763    -0.12300
C620        C  0.39401771  0.22303314  0.25447009     0.05100
C621        C  0.34979372  0.25563454  0.25991432     0.27500
C622        C  0.35138183  0.27140882  0.27291820    -0.12900
C623        C  0.33468870  0.27899787  0.28201696     0.05600
C624        C  0.31634470  0.27085029  0.27813465    -0.08900
C625        C  0.31470607  0.25530525  0.26488409     0.06400
C626        C  0.33138724  0.24775999  0.25573135    -0.13300
Br627      Br  0.36623877  0.22241839  0.28623981    -0.05400
Br628      Br  0.40264754  0.25302670  0.20159515     0.00300
Br629      Br  0.33694067  0.30017411  0.30026977     0.00700
Br630      Br  0.32915755  0.22644873  0.23764969    -0.03700
Br631      Br  0.40710724  0.20289218  0.26896366     0.00800
Br632      Br  0.36234996  0.27347950  0.21960587    -0.03000
Br633      Br  0.37653883  0.28231864  0.27847938    -0.03800
Br634      Br  0.28955918  0.24427756  0.25947697     0.00100
C635        C  0.47464948  0.02275187  0.10113872     0.01600
C636        C  0.49164809  0.03348183  0.10487305     0.04400
C637        C  0.49074402  0.05069498  0.11593329    -0.11700
C638        C  0.47274541  0.05759870  0.12288720     0.23700
C639        C  0.45564525  0.04716498  0.11864930    -0.12300
C640        C  0.45663336  0.02964956  0.10801029     0.05100
C641        C  0.47198214  0.07566386  0.13486620     0.27500
C642        C  0.47114352  0.07444473  0.15535447    -0.12900
C643        C  0.47158255  0.09149587  0.16673188     0.05600
C644        C  0.47325563  0.10982919  0.15771609    -0.08900
C645        C  0.47375337  0.11108228  0.13724053     0.06400
C646        C  0.47293194  0.09406438  0.12584145    -0.13300
Br647      Br  0.43091187  0.05696086  0.12741570    -0.05400
Br648      Br  0.51624581  0.02441098  0.09499679     0.00300
Br649      Br  0.47035234  0.08975850  0.19472547     0.00700
Br650      Br  0.47314834  0.09586109  0.09782201    -0.03700
Br651      Br  0.43336842  0.01499796  0.10284015     0.00800
Br652      Br  0.51424946  0.06464650  0.12197803    -0.03000
Br653      Br  0.46988692  0.04933350  0.16780994    -0.03800
Br654      Br  0.47541179  0.13618284  0.12483355     0.00100
C655        C  0.87475325  0.49222752  0.02635967     0.01600
C656        C  0.87406990  0.47678662  0.03990179     0.04400
C657        C  0.86339040  0.47874690  0.05730165    -0.11700
C658        C  0.85272745  0.49585217  0.06098164     0.23700
C659        C  0.85352863  0.51135928  0.04762388    -0.12300
C660        C  0.86487891  0.50973396  0.03062783     0.05100
C661        C  0.84054399  0.49734812  0.07882933     0.27500
C662        C  0.82089229  0.49173204  0.07829377    -0.12900
C663        C  0.80964620  0.49202282  0.09542332     0.05600
C664        C  0.81808066  0.49764223  0.11327722    -0.08900
C665        C  0.83763407  0.50371418  0.11369898     0.06400
C666        C  0.84875905  0.50374944  0.09647366    -0.13300
Br667      Br  0.83875752  0.53469014  0.05255455    -0.05400
Br668      Br  0.88693526  0.45255187  0.03433672     0.00300
Br669      Br  0.78247058  0.48537453  0.09423184     0.00700
Br670      Br  0.87536977  0.51237930  0.09694083    -0.03700
Br671      Br  0.86751453  0.53183785  0.01363130     0.00800
Br672      Br  0.86303881  0.45788673  0.07609958    -0.03000
Br673      Br  0.80946854  0.48353237  0.05401870    -0.03800
Br674      Br  0.84957278  0.51096019  0.13802343     0.00100
C675        C  0.82076968  0.48240402  0.86302721     0.01600
C676        C  0.81194248  0.47419923  0.87960821     0.04400
C677        C  0.82136070  0.47503226  0.89774834    -0.11700
C678        C  0.83972282  0.48386757  0.89929664     0.23700
C679        C  0.84848486  0.49220481  0.88274183    -0.12300
C680        C  0.83895976  0.49157500  0.86464566     0.05100
C681        C  0.84996677  0.48420019  0.91827370     0.27500
C682        C  0.84890346  0.50077793  0.93022371    -0.12900
C683        C  0.85951667  0.50150429  0.94769889     0.05600
C684        C  0.87058222  0.48527588  0.95376273    -0.08900
C685        C  0.87122757  0.46848688  0.94191791     0.06400
C686        C  0.86120586  0.46810803  0.92408238    -0.13300
Br687      Br  0.87355693  0.50445876  0.88496220    -0.05400
Br688      Br  0.78665977  0.46236384  0.87756714     0.00300
Br689      Br  0.85997403  0.52536053  0.96236409     0.00700
Br690      Br  0.86315585  0.44572199  0.90726327    -0.03700
Br691      Br  0.85090625  0.50305429  0.84200342     0.00800
Br692      Br  0.80904821  0.46438692  0.92060114    -0.03000
Br693      Br  0.83309631  0.52260530  0.92235671    -0.03800
Br694      Br  0.88561551  0.44581294  0.95013405     0.00100
C695        C  0.93556500  0.48463355  0.98567961     0.01600
C696        C  0.94590909  0.49835083  0.97438525     0.04400
C697        C  0.96605264  0.49624730  0.97158464    -0.11700
C698        C  0.97627594  0.48129403  0.98117190     0.23700
C699        C  0.96602920  0.46757876  0.99241480    -0.12300
C700        C  0.94569332  0.46886786  0.99412200     0.05100
C701        C  0.99788106  0.48088800  0.98062795     0.27500
C702        C  0.00788805  0.46725414  0.96903283    -0.12900
C703        C  0.02833281  0.46627571  0.96965171     0.05600
C704        C  0.03896706  0.47983434  0.98087605    -0.08900
C705        C  0.02883977  0.49422038  0.99150004     0.06400
C706        C  0.00843787  0.49422546  0.99199592    -0.13300
Br707      Br  0.97996038  0.44717804  0.00575973    -0.05400
Br708      Br  0.93277050  0.52063188  0.96343560     0.00300
Br709      Br  0.04153539  0.44575299  0.95577083     0.00700
Br710      Br  0.99484194  0.51238376  0.00857314    -0.03700
Br711      Br  0.93176767  0.44832064  0.00705992     0.00800
Br712      Br  0.97977566  0.51377437  0.95450651    -0.03000
Br713      Br  0.99350362  0.45010847  0.95215426    -0.03800
Br714      Br  0.04269295  0.51486918  0.00437675     0.00100
C715        C  0.16362739  0.49009593  0.86303526     0.01600
C716        C  0.14336478  0.49108929  0.86049864     0.04400
C717        C  0.13099550  0.49056878  0.87680487    -0.11700
C718        C  0.13887480  0.48878713  0.89564665     0.23700
C719        C  0.15915874  0.48806135  0.89817830    -0.12300
C720        C  0.17151586  0.48877598  0.88189136     0.05100
C721        C  0.12590596  0.48707115  0.91280875     0.27500
C722        C  0.12136212  0.50361754  0.92402115    -0.12900
C723        C  0.11014595  0.50170532  0.94103554     0.05600
C724        C  0.10309207  0.48331959  0.94662393    -0.08900
C725        C  0.10732748  0.46682991  0.93522621     0.06400
C726        C  0.11877099  0.46869076  0.91836803    -0.13300
Br727      Br  0.16993567  0.48592638  0.92400884    -0.05400
Br728      Br  0.13260298  0.49274546  0.83464162     0.00300
Br729      Br  0.10471110  0.52414921  0.95696908     0.00700
Br730      Br  0.12502550  0.44604603  0.90301630    -0.03700
Br731      Br  0.19927794  0.48798997  0.88534900     0.00800
Br732      Br  0.10326343  0.49227368  0.87345523    -0.03000
Br733      Br  0.13062643  0.52883045  0.91603734    -0.03800
Br734      Br  0.09791589  0.44162373  0.94309657     0.00100
C735        C  0.26242350  0.31926718  0.28189936     0.01600
C736        C  0.24591273  0.31687132  0.27003720     0.04400
C737        C  0.23746259  0.33308551  0.26081429    -0.11700
C738        C  0.24550175  0.35172384  0.26343405     0.23700
C739        C  0.26143351  0.35423623  0.27604045    -0.12300
C740        C  0.26987311  0.33803025  0.28526882     0.05100
C741        C  0.23825060  0.36843219  0.25181292     0.27500
C742        C  0.24607115  0.37192356  0.23317810    -0.12900
C743        C  0.24018450  0.38832630  0.22245438     0.05600
C744        C  0.22641632  0.40130639  0.23031079    -0.08900
C745        C  0.21824758  0.39758041  0.24876142     0.06400
C746        C  0.22415037  0.38114639  0.25950089    -0.13300
Br747      Br  0.27200286  0.37986251  0.28014147    -0.05400
Br748      Br  0.23536879  0.29126810  0.26581875     0.00300
Br749      Br  0.25170765  0.39349844  0.19737986     0.00700
Br750      Br  0.21320079  0.37608913  0.28483297    -0.03700
Br751      Br  0.29175005  0.34142832  0.30242983     0.00800
Br752      Br  0.21525546  0.32980257  0.24407351    -0.03000
Br753      Br  0.26525781  0.35439470  0.22259494    -0.03800
Br754      Br  0.19883035  0.41490793  0.25918595     0.00100
C755        C  0.10140564  0.47597400  0.01863721     0.01600
C756        C  0.10995586  0.45836381  0.02473425     0.04400
C757        C  0.12102539  0.45773222  0.04196745    -0.11700
C758        C  0.12380796  0.47477128  0.05301493     0.23700
C759        C  0.11522391  0.49236039  0.04694074    -0.12300
C760        C  0.10406922  0.49296456  0.02979572     0.05100
C761        C  0.13632903  0.47445051  0.07063443     0.27500
C762        C  0.12799427  0.47236593  0.08925179    -0.12900
C763        C  0.13979093  0.47307176  0.10597628     0.05600
C764        C  0.16003852  0.47543767  0.10412222    -0.08900
C765        C  0.16839554  0.47724870  0.08547141     0.06400
C766        C  0.15655167  0.47688753  0.06878007    -0.13300
Br767      Br  0.11928534  0.51574929  0.06189459    -0.05400
Br768      Br  0.10683655  0.43524993  0.00917457     0.00300
Br769      Br  0.12808302  0.47176153  0.13145744     0.00700
Br770      Br  0.16794777  0.47984103  0.04329204    -0.03700
Br771      Br  0.09329473  0.51732176  0.02105103     0.00800
Br772      Br  0.13267266  0.43364756  0.05037941    -0.03000
Br773      Br  0.10037543  0.46859459  0.09172666    -0.03800
Br774      Br  0.19615235  0.47965587  0.08273607     0.00100
C775        C  0.70631144  0.31969518  0.69805470     0.01600
C776        C  0.69933370  0.33873936  0.69520116     0.04400
C777        C  0.70822909  0.35443050  0.70480655    -0.11700
C778        C  0.72424139  0.35112789  0.71714232     0.23700
C779        C  0.73122540  0.33207913  0.71998679    -0.12300
C780        C  0.72223102  0.31636778  0.71049064     0.05100
C781        C  0.73370128  0.36776984  0.72703858     0.27500
C782        C  0.74880326  0.37795784  0.71770313    -0.12900
C783        C  0.75685006  0.39456639  0.72651073     0.05600
C784        C  0.74973610  0.40105793  0.74459976    -0.08900
C785        C  0.73496238  0.39060158  0.75414561     0.06400
C786        C  0.72703941  0.37390365  0.74543041    -0.13300
Br787      Br  0.75318771  0.32764406  0.73679968    -0.05400
Br788      Br  0.67788549  0.34329991  0.67774398     0.00300
Br789      Br  0.77741637  0.40863663  0.71373390     0.00700
Br790      Br  0.70671647  0.35963323  0.75839179    -0.03700
Br791      Br  0.73162364  0.29023676  0.71448788     0.00800
Br792      Br  0.69862902  0.38052474  0.70102682    -0.03000
Br793      Br  0.75804964  0.36935268  0.69263477    -0.03800
Br794      Br  0.72502925  0.39965779  0.77879441     0.00100
C795        C  0.70691493  0.27326948  0.64242573     0.01600
C796        C  0.71997033  0.25754266  0.64359329     0.04400
C797        C  0.72847369  0.25003850  0.62656162    -0.11700
C798        C  0.72402559  0.25833886  0.60834538     0.23700
C799        C  0.71108814  0.27419315  0.60720453    -0.12300
C800        C  0.70259007  0.28169818  0.62425002     0.05100
C801        C  0.73320114  0.25060695  0.59040893     0.27500
C802        C  0.75091929  0.25840491  0.58384609    -0.12900
C803        C  0.75946360  0.25140200  0.56660654     0.05600
C804        C  0.75034646  0.23647053  0.55592461    -0.08900
C805        C  0.73274283  0.22847759  0.56268420     0.06400
C806        C  0.72416258  0.23558218  0.57986858    -0.13300
Br807      Br  0.70502833  0.28551374  0.58224074    -0.05400
Br808      Br  0.72639399  0.24656074  0.66862418     0.00300
Br809      Br  0.78315517  0.26299384  0.55718650     0.00700
Br810      Br  0.69995995  0.22487438  0.58902746    -0.03700
Br811      Br  0.68506815  0.30355059  0.62281731     0.00800
Br812      Br  0.74621341  0.22838252  0.62807901    -0.03000
Br813      Br  0.76327133  0.27889776  0.59845341    -0.03800
Br814      Br  0.72066380  0.20736618  0.54875096     0.00100
C815        C  0.56917766  0.22228764  0.72749190     0.01600
C816        C  0.57704449  0.21698772  0.70931011     0.04400
C817        C  0.59386023  0.22626322  0.70229099    -0.11700
C818        C  0.60288127  0.24089022  0.71343077     0.23700
C819        C  0.59498880  0.24622362  0.73160234    -0.12300
C820        C  0.57816736  0.23693686  0.73861852     0.05100
C821        C  0.62069065  0.25062877  0.70606747     0.27500
C822        C  0.63915659  0.24388689  0.71181396    -0.12900
C823        C  0.65601134  0.25317847  0.70492747     0.05600
C824        C  0.65446062  0.26918650  0.69222353    -0.08900
C825        C  0.63603463  0.27586041  0.68637097     0.06400
C826        C  0.61917030  0.26663267  0.69331716    -0.13300
Br827      Br  0.60735396  0.26623259  0.74684095    -0.05400
Br828      Br  0.56462662  0.19710763  0.69395983     0.00300
Br829      Br  0.68129416  0.24398946  0.71275435     0.00700
Br830      Br  0.59393980  0.27583407  0.68538423    -0.03700
Br831      Br  0.56758509  0.24402499  0.76361841     0.00800
Br832      Br  0.60467040  0.21892691  0.67744780    -0.03000
Br833      Br  0.64127643  0.22181659  0.72901009    -0.03800
Br834      Br  0.63402002  0.29757571  0.66870189     0.00100
C835        C  0.70474842  0.70710020  0.33202618     0.01600
C836        C  0.70180694  0.69744335  0.34988912     0.04400
C837        C  0.70970171  0.70508515  0.36713480    -0.11700
C838        C  0.72013727  0.72268625  0.36668953     0.23700
C839        C  0.72265018  0.73262596  0.34892321    -0.12300
C840        C  0.71517049  0.72472945  0.33157843     0.05100
C841        C  0.72881090  0.73041166  0.38489403     0.27500
C842        C  0.71730011  0.74089604  0.39820980    -0.12900
C843        C  0.72523189  0.74709741  0.41604310     0.05600
C844        C  0.74476910  0.74287653  0.42061753    -0.08900
C845        C  0.75637153  0.73268333  0.40706348     0.06400
C846        C  0.74840841  0.72653675  0.38923745    -0.13300
Br847      Br  0.73628195  0.75709073  0.34846685    -0.05400
Br848      Br  0.68634395  0.67411516  0.35087185     0.00300
Br849      Br  0.70941643  0.76195144  0.43385058     0.00700
Br850      Br  0.76420580  0.71243486  0.37079532    -0.03700
Br851      Br  0.71960641  0.73778678  0.30711240     0.00800
Br852      Br  0.70632417  0.69142593  0.39144649    -0.03000
Br853      Br  0.69064090  0.74673254  0.39187796    -0.03800
Br854      Br  0.78287667  0.72601107  0.41325041     0.00100
C855        C  0.65447444  0.70940508  0.27995568     0.01600
C856        C  0.63631603  0.70689436  0.28904999     0.04400
C857        C  0.61964766  0.71554495  0.28103480    -0.11700
C858        C  0.62105786  0.72657068  0.26381111     0.23700
C859        C  0.63919318  0.72909140  0.25469613    -0.12300
C860        C  0.65592579  0.72064082  0.26284946     0.05100
C861        C  0.60341168  0.73557678  0.25540667     0.27500
C862        C  0.59181740  0.72497801  0.24231042    -0.12900
C863        C  0.57464464  0.73321623  0.23493864     0.05600
C864        C  0.56890442  0.75200455  0.24084279    -0.08900
C865        C  0.58061377  0.76266923  0.25383159     0.06400
C866        C  0.59792446  0.75450276  0.26099062    -0.13300
Br867      Br  0.64098323  0.74416515  0.23107994    -0.05400
Br868      Br  0.63425943  0.69132328  0.31233760     0.00300
Br869      Br  0.55933493  0.71895737  0.21626471     0.00700
Br870      Br  0.61409364  0.76904182  0.27867288    -0.03700
Br871      Br  0.68091698  0.72496556  0.25098886     0.00800
Br872      Br  0.59480838  0.71236940  0.29360075    -0.03000
Br873      Br  0.59949249  0.69910505  0.23462928    -0.03800
Br874      Br  0.57247771  0.78803872  0.26263091     0.00100
C875        C  0.73904584  0.57080460  0.23279859     0.01600
C876        C  0.71957947  0.57682938  0.23067462     0.04400
C877        C  0.71307110  0.59397125  0.23977093    -0.11700
C878        C  0.72585047  0.60494037  0.25139568     0.23700
C879        C  0.74525298  0.59884973  0.25367707    -0.12300
C880        C  0.75189206  0.58191379  0.24425153     0.05100
C881        C  0.71878948  0.62281610  0.26128196     0.27500
C882        C  0.72230721  0.64122390  0.25298495    -0.12900
C883        C  0.71521915  0.65811252  0.26212583     0.05600
C884        C  0.70426774  0.65664705  0.27939973    -0.08900
C885        C  0.70073238  0.63822913  0.28768749     0.06400
C886        C  0.70815753  0.62136743  0.27875800    -0.13300
Br887      Br  0.76259297  0.61363384  0.26998211    -0.05400
Br888      Br  0.70188596  0.56194409  0.21483332     0.00300
Br889      Br  0.72070171  0.68332798  0.25113728     0.00700
Br890      Br  0.70367832  0.59619350  0.29031994    -0.03700
Br891      Br  0.77839937  0.57353684  0.24766825     0.00800
Br892      Br  0.68666648  0.60264939  0.23616717    -0.03000
Br893      Br  0.73657149  0.64320821  0.22889998    -0.03800
Br894      Br  0.68507419  0.63602311  0.31084591     0.00100
C895        C  0.31232147  0.70994397  0.68931369     0.01600
C896        C  0.33078149  0.70712540  0.68091278     0.04400
C897        C  0.34735410  0.71480532  0.69003766    -0.11700
C898        C  0.34547233  0.72547404  0.70744723     0.23700
C899        C  0.32697441  0.72875449  0.71553589    -0.12300
C900        C  0.31041778  0.72102503  0.70646655     0.05100
C901        C  0.36295112  0.73332077  0.71722215     0.27500
C902        C  0.37193745  0.72271902  0.73228990    -0.12900
C903        C  0.38853966  0.73020002  0.74153380     0.05600
C904        C  0.39628710  0.74822017  0.73560136    -0.08900
C905        C  0.38734019  0.75874496  0.72043102     0.06400
C906        C  0.37062235  0.75135556  0.71135478    -0.13300
Br907      Br  0.32444417  0.74356091  0.73924492    -0.05400
Br908      Br  0.33344961  0.69212457  0.65733331     0.00300
Br909      Br  0.40043248  0.71595004  0.76259675     0.00700
Br910      Br  0.35827424  0.76574245  0.69065444    -0.03700
Br911      Br  0.28504264  0.72567435  0.71743702     0.00800
Br912      Br  0.37274931  0.71027542  0.67909113    -0.03000
Br913      Br  0.36155833  0.69784372  0.74002877    -0.03800
Br914      Br  0.39855968  0.78275838  0.71128673     0.00100
C915        C  0.23900221  0.57096532  0.74772700     0.01600
C916        C  0.22946901  0.57588508  0.73024780     0.04400
C917        C  0.23406394  0.59331090  0.72056285    -0.11700
C918        C  0.24804427  0.60599363  0.72841357     0.23700
C919        C  0.25705061  0.60145987  0.74626425    -0.12300
C920        C  0.25263861  0.58390239  0.75584791     0.05100
C921        C  0.25409859  0.62344168  0.71723328     0.27500
C922        C  0.26974490  0.62205871  0.70408715    -0.12900
C923        C  0.27521399  0.63828962  0.69292800     0.05600
C924        C  0.26514912  0.65601299  0.69496120    -0.08900
C925        C  0.24967857  0.65751210  0.70829972     0.06400
C926        C  0.24407420  0.64119793  0.71934944    -0.13300
Br927      Br  0.27563313  0.61924300  0.75733524    -0.05400
Br928      Br  0.20975960  0.55897156  0.71978757     0.00300
Br929      Br  0.29660805  0.63635917  0.67488664     0.00700
Br930      Br  0.22284386  0.64310889  0.73753534    -0.03700
Br931      Br  0.26596763  0.57714410  0.77959653     0.00800
Br932      Br  0.22144738  0.59979601  0.69634606    -0.03000
Br933      Br  0.28376831  0.59789137  0.70154318    -0.03800
Br934      Br  0.23665989  0.68210327  0.71181779     0.00100
C935        C  0.26179307  0.70129605  0.63775779     0.01600
C936        C  0.26898903  0.69355955  0.62017975     0.04400
C937        C  0.26144028  0.69998673  0.60224711    -0.11700
C938        C  0.24669881  0.71420583  0.60184326     0.23700
C939        C  0.23930558  0.72172699  0.61944097    -0.12300
C940        C  0.24684361  0.71527989  0.63736849     0.05100
C941        C  0.23928670  0.72165205  0.58294056     0.27500
C942        C  0.24796114  0.73806435  0.57426582    -0.12900
C943        C  0.24055105  0.74557554  0.55670511     0.05600
C944        C  0.22441936  0.73673198  0.54779543    -0.08900
C945        C  0.21592295  0.72015298  0.55629818     0.06400
C946        C  0.22335845  0.71260617  0.57383657    -0.13300
Br947      Br  0.21903816  0.74109008  0.61886301    -0.05400
Br948      Br  0.28941802  0.67437089  0.62075513     0.00300
Br949      Br  0.25221049  0.76822524  0.54501379     0.00700
Br950      Br  0.21170323  0.68997057  0.58554631    -0.03700
Br951      Br  0.23694943  0.72575974  0.66144625     0.00800
Br952      Br  0.27141909  0.68958439  0.57817069    -0.03000
Br953      Br  0.26986663  0.75033274  0.58665163    -0.03800
Br954      Br  0.19415862  0.70775160  0.54379726     0.00100
C955        C  0.28220642  0.32095297  0.71284022     0.01600
C956        C  0.26719351  0.32054937  0.72675814     0.04400
C957        C  0.26018699  0.33801672  0.73482853    -0.11700
C958        C  0.26840454  0.35593280  0.72923733     0.23700
C959        C  0.28383160  0.35626682  0.71574430    -0.12300
C960        C  0.29061883  0.33881457  0.70744686     0.05100
C961        C  0.26067085  0.37446003  0.73729149     0.27500
C962        C  0.24693669  0.38532694  0.72664786    -0.12900
C963        C  0.24001862  0.40316993  0.73397356     0.05600
C964        C  0.24667146  0.41014633  0.75208871    -0.08900
C965        C  0.26024256  0.39912301  0.76283879     0.06400
C966        C  0.26724707  0.38135562  0.75542812    -0.13300
Br967      Br  0.29549142  0.38071801  0.70855803    -0.05400
Br968      Br  0.25616069  0.29598881  0.73455931     0.00300
Br969      Br  0.22090778  0.41769625  0.71947003     0.00700
Br970      Br  0.28603571  0.36645301  0.76997373    -0.03700
Br971      Br  0.31120143  0.33930665  0.68842259     0.00800
Br972      Br  0.23905618  0.33750879  0.75323091    -0.03000
Br973      Br  0.23750610  0.37555612  0.70208868    -0.03800
Br974      Br  0.26991267  0.40870506  0.78737693     0.00100
C975        C  0.40946711  0.21303333  0.74333116     0.01600
C976        C  0.39559061  0.20239991  0.73256201     0.04400
C977        C  0.37778955  0.21110961  0.72738590    -0.11700
C978        C  0.37381277  0.23045103  0.73282816     0.23700
C979        C  0.38705294  0.24058282  0.74467164    -0.12300
C980        C  0.40478529  0.23188679  0.74998596     0.05100
C981        C  0.35671143  0.24080039  0.72459052     0.27500
C982        C  0.35859407  0.25073164  0.70673706    -0.12900
C983        C  0.34285929  0.26133933  0.69911174     0.05600
C984        C  0.32511899  0.26213198  0.70933040    -0.08900
C985        C  0.32310163  0.25185592  0.72701303     0.06400
C986        C  0.33887151  0.24119433  0.73461590    -0.13300
Br987      Br  0.38100198  0.26663517  0.75314192    -0.05400
Br988      Br  0.40128344  0.17639544  0.72368178     0.00300
Br989      Br  0.34584108  0.27530290  0.67492107     0.00700
Br990      Br  0.33617368  0.22712245  0.75873949    -0.03700
Br991      Br  0.42241722  0.24569500  0.76684177     0.00800
Br992      Br  0.35900241  0.19689417  0.71223223    -0.03000
Br993      Br  0.38295339  0.24995103  0.69287097    -0.03800
Br994      Br  0.29858608  0.25204988  0.74057193     0.00100
C995        C  0.27290974  0.27256731  0.65971345     0.01600
C996        C  0.27678999  0.28099408  0.64140633     0.04400
C997        C  0.26689883  0.27439545  0.62473470    -0.11700
C998        C  0.25314609  0.25932494  0.62631864     0.23700
C999        C  0.24888918  0.25129505  0.64470541    -0.12300
C1000       C  0.25876043  0.25789099  0.66136606     0.05100
C1001       C  0.24401550  0.25107064  0.60855867     0.27500
C1002       C  0.22638245  0.25864613  0.60144147    -0.12900
C1003       C  0.21766451  0.25042670  0.58481658     0.05600
C1004       C  0.22655823  0.23458438  0.57526930    -0.08900
C1005       C  0.24424553  0.22708020  0.58238678     0.06400
C1006       C  0.25294589  0.23531931  0.59896726    -0.13300
Br1007     Br  0.22963752  0.23109404  0.64693232    -0.05400
Br1008     Br  0.29608645  0.30116063  0.63913284     0.00300
Br1009     Br  0.19395001  0.26137904  0.57467541     0.00700
Br1010     Br  0.27715269  0.22504746  0.60869051    -0.03700
Br1011     Br  0.25284881  0.24694790  0.68653889     0.00800
Br1012     Br  0.27231139  0.28572841  0.59963214    -0.03000
Br1013     Br  0.21434152  0.28037142  0.61446469    -0.03800
Br1014     Br  0.25628834  0.20505797  0.56983221     0.00100
C1015       C  0.69691429  0.32324099  0.25792709     0.01600
C1016       C  0.70398640  0.32333629  0.23863083     0.04400
C1017       C  0.71096096  0.34071670  0.23035709    -0.11700
C1018       C  0.71113604  0.35796450  0.24140425     0.23700
C1019       C  0.70412069  0.35789127  0.26064646    -0.12300
C1020       C  0.69683750  0.34064800  0.26882957     0.05100
C1021       C  0.71839559  0.37633997  0.23277611     0.27500
C1022       C  0.73813146  0.38134673  0.23449331    -0.12900
C1023       C  0.74484742  0.39913840  0.22695161     0.05600
C1024       C  0.73177754  0.41208501  0.21788320    -0.08900
C1025       C  0.71199977  0.40709525  0.21628632     0.06400
C1026       C  0.70536455  0.38917437  0.22357176    -0.13300
Br1027     Br  0.70449316  0.38156020  0.27573473    -0.05400
Br1028     Br  0.70471929  0.29958349  0.22370370     0.00300
Br1029     Br  0.77177395  0.40617608  0.22994423     0.00700
Br1030     Br  0.67837744  0.38213986  0.22115524    -0.03700
Br1031     Br  0.68601008  0.34119415  0.29473499     0.00800
Br1032     Br  0.72031253  0.34104513  0.20389047    -0.03000
Br1033     Br  0.75578604  0.36396834  0.24765452    -0.03800
Br1034     Br  0.69400490  0.42466744  0.20387620     0.00100
C1035       C  0.70232117  0.27325166  0.31011922     0.01600
C1036       C  0.69686466  0.28079216  0.32838989     0.04400
C1037       C  0.70622225  0.27430469  0.34537563    -0.11700
C1038       C  0.72091159  0.26009247  0.34415295     0.23700
C1039       C  0.72639262  0.25256249  0.32587300    -0.12300
C1040       C  0.71713580  0.25918914  0.30885602     0.05100
C1041       C  0.73016306  0.25267273  0.36217143     0.27500
C1042       C  0.74591859  0.26268606  0.37052200    -0.12900
C1043       C  0.75439310  0.25578644  0.38783292     0.05600
C1044       C  0.74724829  0.23876386  0.39670674    -0.08900
C1045       C  0.73148819  0.22876992  0.38836776     0.06400
C1046       C  0.72292189  0.23574440  0.37114410    -0.13300
Br1047     Br  0.74653245  0.23313108  0.32426768    -0.05400
Br1048     Br  0.67636732  0.29983635  0.33012727     0.00300
Br1049     Br  0.77537865  0.26997235  0.39976745     0.00700
Br1050     Br  0.70117277  0.22223341  0.35980354    -0.03700
Br1051     Br  0.72462327  0.24903837  0.28378802     0.00800
Br1052     Br  0.69890287  0.28476156  0.37038748    -0.03000
Br1053     Br  0.75575552  0.28588786  0.35822925    -0.03800
Br1054     Br  0.72185418  0.20534980  0.40039724     0.00100
C1055       C  0.56112447  0.22492602  0.22807789     0.01600
C1056       C  0.57006856  0.23978083  0.21717624     0.04400
C1057       C  0.58745865  0.24826356  0.22377820    -0.11700
C1058       C  0.59611616  0.24174980  0.24119961     0.23700
C1059       C  0.58742356  0.22654636  0.25184913    -0.12300
C1060       C  0.56990018  0.21824067  0.24536510     0.05100
C1061       C  0.61412230  0.25117109  0.24851153     0.27500
C1062       C  0.63239699  0.24552803  0.24116918    -0.12900
C1063       C  0.64937364  0.25472371  0.24787056     0.05600
C1064       C  0.64815904  0.26945003  0.26206318    -0.08900
C1065       C  0.62993890  0.27499851  0.26952955     0.06400
C1066       C  0.61294205  0.26593068  0.26272140    -0.13300
Br1067     Br  0.59952765  0.21726790  0.27540863    -0.05400
Br1068     Br  0.55846613  0.24843405  0.19314733     0.00300
Br1069     Br  0.67436663  0.24725670  0.23763871     0.00700
Br1070     Br  0.58798175  0.27375393  0.27275843    -0.03700
Br1071     Br  0.55763008  0.19800725  0.26038831     0.00800
Br1072     Br  0.59931802  0.26906795  0.20918540    -0.03000
Br1073     Br  0.63410308  0.22511362  0.22201357    -0.03800
Br1074     Br  0.62837793  0.29505479  0.28909715     0.00100
C1075       C  0.26364692  0.70057061  0.30436872     0.01600
C1076       C  0.27208543  0.69884472  0.32299755     0.04400
C1077       C  0.26318858  0.70763295  0.33920933    -0.11700
C1078       C  0.24560950  0.71788561  0.33696954     0.23700
C1079       C  0.23680888  0.71905462  0.31848746    -0.12300
C1080       C  0.24580825  0.71042093  0.30220487     0.05100
C1081       C  0.23630072  0.72713232  0.35417784     0.27500
C1082       C  0.22425835  0.71603510  0.36646409    -0.12900
C1083       C  0.21658399  0.72430637  0.38355255     0.05600
C1084       C  0.22057947  0.74385063  0.38824009    -0.08900
C1085       C  0.23189912  0.75522529  0.37550033     0.06400
C1086       C  0.23998474  0.74679840  0.35863467    -0.13300
Br1087     Br  0.21248822  0.73264319  0.31557938    -0.05400
Br1088     Br  0.29555142  0.68387078  0.32640045     0.00300
Br1089     Br  0.20041370  0.70888497  0.40049471     0.00700
Br1090     Br  0.25661655  0.76192738  0.34189282    -0.03700
Br1091     Br  0.23391744  0.71243126  0.27687545     0.00800
Br1092     Br  0.27513798  0.70582597  0.36454353    -0.03000
Br1093     Br  0.21850070  0.68939832  0.35989542    -0.03800
Br1094     Br  0.23676069  0.78217338  0.38146251     0.00100
C1095       C  0.41047095  0.74355337  0.22956918     0.01600
C1096       C  0.40309190  0.72710412  0.21988545     0.04400
C1097       C  0.38527132  0.71899414  0.22573176    -0.11700
C1098       C  0.37475195  0.72741139  0.24119149     0.23700
C1099       C  0.38221721  0.74378357  0.25095206    -0.12300
C1100       C  0.40017167  0.75168997  0.24530295     0.05100
C1101       C  0.35598810  0.71887036  0.24741464     0.27500
C1102       C  0.33841308  0.72611889  0.23980680    -0.12900
C1103       C  0.32063148  0.71808316  0.24584166     0.05600
C1104       C  0.32041014  0.70267378  0.25933640    -0.08900
C1105       C  0.33796817  0.69541617  0.26694240     0.06400
C1106       C  0.35573484  0.70356424  0.26105521    -0.13300
Br1107     Br  0.36772980  0.75536827  0.27200617    -0.05400
Br1108     Br  0.41744645  0.71572776  0.19863949     0.00300
Br1109     Br  0.29652448  0.72799117  0.23556871     0.00700
Br1110     Br  0.37978659  0.69384459  0.27164611    -0.03700
Br1111     Br  0.41097569  0.77334053  0.25944058     0.00800
Br1112     Br  0.37515206  0.69639328  0.21260416    -0.03000
Br1113     Br  0.33880409  0.74696831  0.22103751    -0.03800
Br1114     Br  0.33759588  0.67432597  0.28546680     0.00100
C1115       C  0.27210936  0.64933173  0.25314357     0.01600
C1116       C  0.26437120  0.64890192  0.23413921     0.04400
C1117       C  0.25879958  0.63107249  0.22577356    -0.11700
C1118       C  0.26122076  0.61362526  0.23626332     0.23700
C1119       C  0.26944572  0.61400963  0.25502679    -0.12300
C1120       C  0.27485025  0.63182112  0.26346467     0.05100
C1121       C  0.25508115  0.59483948  0.22762516     0.27500
C1122       C  0.23590615  0.58823080  0.23021826    -0.12900
C1123       C  0.23016208  0.57024031  0.22237343     0.05600
C1124       C  0.24357462  0.55882783  0.21190918    -0.08900
C1125       C  0.26274141  0.56541602  0.20932643     0.06400
C1126       C  0.26848241  0.58342945  0.21713062    -0.13300
Br1127     Br  0.27349140  0.59003044  0.26902961    -0.05400
Br1128     Br  0.26136871  0.67272402  0.21960914     0.00300
Br1129     Br  0.20402374  0.56101601  0.22624436     0.00700
Br1130     Br  0.29469174  0.59254910  0.21354565    -0.03700
Br1131     Br  0.28677196  0.63219080  0.28888501     0.00800
Br1132     Br  0.24788053  0.63039643  0.19993086    -0.03000
Br1133     Br  0.21761408  0.60384769  0.24465212    -0.03800
Br1134     Br  0.28107754  0.54971206  0.19506834     0.00100
C1135       C  0.69129488  0.64321197  0.71230702     0.01600
C1136       C  0.68797933  0.62466578  0.70430688     0.04400
C1137       C  0.69590904  0.60809102  0.71329129    -0.11700
C1138       C  0.70693769  0.61001166  0.73045636     0.23700
C1139       C  0.71027817  0.62857350  0.73844388    -0.12300
C1140       C  0.70261310  0.64517733  0.72926471     0.05100
C1141       C  0.71486967  0.59244443  0.74012330     0.27500
C1142       C  0.70288603  0.58120188  0.75235555    -0.12900
C1143       C  0.71005264  0.56395124  0.76068990     0.05600
C1144       C  0.72931316  0.55812918  0.75711402    -0.08900
C1145       C  0.74144611  0.56958326  0.74525428     0.06400
C1146       C  0.73419033  0.58666320  0.73664836    -0.13300
Br1147     Br  0.72524925  0.63114960  0.76201814    -0.05400
Br1148     Br  0.67239423  0.62203168  0.68114185     0.00300
Br1149     Br  0.69353962  0.54823909  0.77699994     0.00700
Br1150     Br  0.75053553  0.60197823  0.71978443    -0.03700
Br1151     Br  0.70790770  0.67067664  0.73963306     0.00800
Br1152     Br  0.69176948  0.58270153  0.70211200    -0.03000
Br1153     Br  0.67664399  0.58949259  0.75759113    -0.03800
Br1154     Br  0.76785410  0.56156285  0.74041052     0.00100
C1155       C  0.64035669  0.69486193  0.70844903     0.01600
C1156       C  0.62267673  0.69258381  0.69841398     0.04400
C1157       C  0.60582458  0.70189633  0.70525441    -0.11700
C1158       C  0.60665639  0.71360869  0.72205399     0.23700
C1159       C  0.62434581  0.71597751  0.73202354    -0.12300
C1160       C  0.64116565  0.70653545  0.72528314     0.05100
C1161       C  0.58887603  0.72338885  0.72923652     0.27500
C1162       C  0.58359748  0.74175786  0.72186770    -0.12900
C1163       C  0.56638376  0.75075458  0.72821631     0.05600
C1164       C  0.55446670  0.74142994  0.74205226    -0.08900
C1165       C  0.55987809  0.72312609  0.74956625     0.06400
C1166       C  0.57709222  0.71414709  0.74319218    -0.13300
Br1167     Br  0.62548784  0.73243678  0.75471836    -0.05400
Br1168     Br  0.62155793  0.67656900  0.67539438     0.00300
Br1169     Br  0.55869976  0.77541334  0.71721429     0.00700
Br1170     Br  0.58467738  0.68918863  0.75355241    -0.03700
Br1171     Br  0.66545434  0.71000203  0.73877465     0.00800
Br1172     Br  0.58155596  0.69875710  0.69162919    -0.03000
Br1173     Br  0.59998997  0.75446641  0.70298898    -0.03800
Br1174     Br  0.54400799  0.71055937  0.76898537     0.00100
C1175       C  0.69533779  0.69478070  0.66148624     0.01600
C1176       C  0.68910013  0.69135334  0.64227683     0.04400
C1177       C  0.69902950  0.69992965  0.62659374    -0.11700
C1178       C  0.71500342  0.71220719  0.63012580     0.23700
C1179       C  0.72101308  0.71590314  0.64936857    -0.12300
C1180       C  0.71130047  0.70704196  0.66503296     0.05100
C1181       C  0.72566797  0.72090662  0.61353474     0.27500
C1182       C  0.74211054  0.71139490  0.60589008    -0.12900
C1183       C  0.75163468  0.71905029  0.58947745     0.05600
C1184       C  0.74473125  0.73622418  0.58069011    -0.08900
C1185       C  0.72861230  0.74601891  0.58865520     0.06400
C1186       C  0.71907061  0.73835884  0.60505887    -0.13300
Br1187     Br  0.74247329  0.73320271  0.65416831    -0.05400
Br1188     Br  0.66711146  0.67469446  0.63751275     0.00300
Br1189     Br  0.77378870  0.70572770  0.57865540     0.00700
Br1190     Br  0.69678736  0.75152929  0.61582547    -0.03700
Br1191     Br  0.71969380  0.71176679  0.69140160     0.00800
Br1192     Br  0.69093665  0.69476174  0.60022081    -0.03000
Br1193     Br  0.75123817  0.68763334  0.61771819    -0.03800
Br1194     Br  0.71967398  0.76995116  0.57706733     0.00100
loop_ 
_geom_bond_atom_site_label_1 
_geom_bond_atom_site_label_2 
_geom_bond_distance 
_geom_bond_site_symmetry_2 
_ccdc_geom_bond_type 
C1            C2   1.401       .  A
C1            C6   1.400       .  A
C1         C1175   1.475       .  S
C2            C3   1.402       .  A
C2            H7   1.084       .  S
C3            C4   1.403       .  A
C3         C1135   1.476       .  S
C4            C5   1.403       .  A
C4            H8   1.084       .  S
C5            C6   1.401       .  A
C5         C1155   1.476       .  S
C6            H9   1.084       .  S
C10          C11   1.405       .  A
C10          C15   1.404       .  A
C10        C1075   1.483       .  S
C11          C12   1.406       .  A
C11          H16   1.086       .  S
C12          C13   1.402       .  A
C12        C1115   1.480       .  S
C13          C14   1.400       .  A
C13          H17   1.083       .  S
C14          C15   1.402       .  A
C14        C1104   1.476       .  S
C15          H18   1.082       .  S
C19          C20   1.403       .  A
C19          C24   1.404       .  A
C19        C1064   1.479       .  S
C20          C21   1.402       .  A
C20          H25   1.084       .  S
C21          C22   1.400       .  A
C21        C1035   1.476       .  S
C22          C23   1.403       .  A
C22          H26   1.084       .  S
C23          C24   1.405       .  A
C23        C1015   1.483       .  S
C24          H27   1.084       .  S
C28          C29   1.406       .  A
C28          C33   1.405       .  A
C28         C984   1.485       .  S
C29          C30   1.404       .  A
C29          H34   1.084       .  S
C30          C31   1.402       .  A
C30         C955   1.479       .  S
C31          C32   1.401       .  A
C31          H35   1.084       .  S
C32          C33   1.404       .  A
C32         C995   1.480       .  S
C33          H36   1.084       .  S
C37          C38   1.406       .  A
C37          C42   1.405       .  A
C37         C935   1.480       .  S
C38          C39   1.405       .  A
C38          H43   1.083       .  S
C39          C40   1.398       .  A
C39         C924   1.477       .  S
C40          C41   1.399       .  A
C40          H44   1.085       .  S
C41          C42   1.403       .  A
C41         C895   1.477       .  S
C42          H45   1.084       .  S
C46          C47   1.402       .  A
C46          C51   1.405       .  A
C46         C835   1.480       .  S
C47          C48   1.401       .  A
C47          H52   1.084       .  S
C48          C49   1.402       .  A
C48         C855   1.477       .  S
C49          C50   1.403       .  A
C49          H53   1.084       .  S
C50          C51   1.404       .  A
C50         C884   1.481       .  S
C51          H54   1.084       .  S
C55          C56   1.402       .  A
C55          C60   1.404       .  A
C55         C824   1.479       .  S
C56          C57   1.402       .  A
C56          H61   1.084       .  S
C57          C58   1.401       .  A
C57         C795   1.476       .  S
C58          C59   1.402       .  A
C58          H62   1.084       .  S
C59          C60   1.404       .  A
C59         C775   1.477       .  S
C60          H63   1.084       .  S
N64          N65   1.323       .  A
N64          C68   1.347       .  A
N64         Cu72   2.079       .  S
N65          C66   1.346       .  A
N65         Cu71   2.074       .  S
C66          C67   1.381       .  A
C66          H69   1.079       .  S
C67          C68   1.382       .  A
C67        C1124   1.475       .  S
C68          H70   1.078       .  S
Cu71         N74   2.074       .  S
Cu72         N82   2.079       .  S
Cu73         N75   2.080       .  S
Cu73         N81   2.081       .  S
N74          N75   1.323       .  A
N74          C78   1.345       .  A
N75          C76   1.347       .  A
C76          C77   1.384       .  A
C76          H79   1.082       .  S
C77          C78   1.382       .  A
C77         C744   1.477       .  S
C78          H80   1.082       .  S
N81          N82   1.323       .  A
N81          C85   1.346       .  A
N82          C83   1.347       .  A
C83          C84   1.383       .  A
C83          H86   1.081       .  S
C84          C85   1.383       .  A
C84         C764   1.480       .  S
C85          H87   1.081       .  S
C88          C89   1.403       .  A
C88          C93   1.400       .  A
C88         C724   1.477       .  S
C89          C90   1.406       .  A
C89          H94   1.084       .  S
C90          C91   1.410       .  A
C90         C704   1.492       .  S
C91          C92   1.406       .  A
C91          H95   1.084   1_556  S
C92          C93   1.400       .  A
C92         C755   1.482   1_556  S
C93          H96   1.085       .  S
N97          N98   1.323       .  A
N97         C101   1.346       .  A
N97        Cu105   2.074       .  S
N98          C99   1.347       .  A
N98        Cu104   2.086       .  S
C99         C100   1.384       .  A
C99         H102   1.081       .  S
C100        C101   1.381       .  A
C100        C915   1.478       .  S
C101        H103   1.081       .  S
Cu104       N107   2.086       .  S
Cu105       N115   2.074       .  S
Cu106       N108   2.076       .  S
Cu106       N114   2.076       .  S
N107        N108   1.323       .  A
N107        C111   1.348       .  A
N108        C109   1.346       .  A
C109        C110   1.383       .  A
C109        H112   1.080       .  S
C110        C111   1.385       .  A
C110        C964   1.482       .  S
C111        H113   1.081       .  S
N114        N115   1.323       .  A
N114        C118   1.346       .  A
N115        C116   1.346       .  A
C116        C117   1.381       .  A
C116        H119   1.081       .  S
C117        C118   1.382       .  A
C117        C715   1.474       .  S
C118        H120   1.081       .  S
N121        N122   1.322       .  A
N121        C125   1.345       .  A
N121       Cu129   2.067       .  S
N122        C123   1.344       .  A
N122       Cu128   2.069       .  S
C123        C124   1.381       .  A
C123        H126   1.082       .  S
C124        C125   1.381       .  A
C124       C1144   1.472       .  S
C125        H127   1.082       .  S
Cu128       N131   2.070       .  S
Cu129       N139   2.067       .  S
Cu130       N132   2.083       .  S
Cu130       N138   2.083       .  S
N131        N132   1.323       .  A
N131        C135   1.343       .  A
N132        C133   1.348       .  A
C133        C134   1.384       .  A
C133        H136   1.080       .  S
C134        C135   1.379       .  A
C134        C784   1.474       .  S
C135        H137   1.081       .  S
N138        N139   1.323       .  A
N138        C142   1.347       .  A
N139        C140   1.344       .  A
C140        C141   1.379       .  A
C140        H143   1.081       .  S
C141        C142   1.384       .  A
C141        C675   1.474       .  S
C142        H144   1.079       .  S
N145        N146   1.323       .  A
N145        C149   1.347       .  A
N145       Cu153   2.084       .  S
N146        C147   1.345       .  A
N146       Cu152   2.072       .  S
C147        C148   1.382       .  A
C147        H150   1.080       .  S
C148        C149   1.385       .  A
C148        C875   1.480       .  S
C149        H151   1.079       .  S
Cu152       N155   2.072       .  S
Cu153       N163   2.084       .  S
Cu154       N156   2.079       .  S
Cu154       N162   2.080       .  S
N155        N156   1.322       .  A
N155        C159   1.345       .  A
N156        C157   1.346       .  A
C157        C158   1.384       .  A
C157        H160   1.080       .  S
C158        C159   1.382       .  A
C158       C1024   1.478       .  S
C159        H161   1.081       .  S
N162        N163   1.323       .  A
N162        C166   1.346       .  A
N163        C164   1.348       .  A
C164        C165   1.385       .  A
C164        H167   1.081       .  S
C165        C166   1.384       .  A
C165        C664   1.483       .  S
C166        H168   1.081       .  S
C169        C170   1.410       .  A
C169        C174   1.407   1_554  A
C169        C655   1.491       .  S
C170        C171   1.411   1_554  A
C170        H175   1.083       .  S
C171        C172   1.402       .  A
C171        C695   1.491       .  S
C172        C173   1.401       .  A
C172        H176   1.084       .  S
C173        C174   1.405       .  A
C173        C684   1.486       .  S
C174        H177   1.084       .  S
N178        N179   1.323       .  A
N178        C182   1.346       .  A
N178       Cu186   2.082       .  S
N179        C180   1.347       .  A
N179       Cu185   2.082       .  S
C180        C181   1.383       .  A
C180        H183   1.082       .  S
C181        C182   1.383       .  A
C181        C615   1.480       .  S
C182        H184   1.082       .  S
Cu185       N188   2.082       .  S
Cu186       N196   2.082       .  S
Cu187       N189   2.089       .  S
Cu187       N195   2.089       .  S
N188        N189   1.324       .  A
N188        C192   1.346       .  A
N189        C190   1.349       .  A
C190        C191   1.384       .  A
C190        H193   1.081       .  S
C191        C192   1.382       .  A
C191       C1055   1.480       .  S
C192        H194   1.081       .  S
N195        N196   1.324       .  A
N195        C199   1.348       .  A
N196        C197   1.347       .  A
C197        C198   1.383       .  A
C197        H200   1.082       .  S
C198        C199   1.384       .  A
C198        C644   1.481       .  S
C199        H201   1.082       .  S
C202        C203   1.405   1_545  A
C202        C207   1.405       .  A
C202        C635   1.484       .  S
C203        C204   1.405       .  A
C203        H208   1.084       .  S
C204        C205   1.403       .  A
C204        C595   1.483       .  S
C205        C206   1.402       .  A
C205        H209   1.084       .  S
C206        C207   1.406   1_565  A
C206        C584   1.482       .  S
C207        H210   1.084       .  S
N211        N212   1.322       .  A
N211        C215   1.346       .  A
N211       Cu219   2.073       .  S
N212        C213   1.344       .  A
N212       Cu218   2.069       .  S
C213        C214   1.382       .  A
C213        H216   1.081       .  S
C214        C215   1.383       .  A
C214        C864   1.475       .  S
C215        H217   1.080       .  S
Cu218       N221   2.069       .  S
Cu219       N229   2.073       .  S
Cu220       N222   2.083       .  S
Cu220       N228   2.084       .  S
N221        N222   1.323       .  A
N221        C225   1.345       .  A
N222        C223   1.346       .  A
C223        C224   1.383       .  A
C223        H226   1.081       .  S
C224        C225   1.380       .  A
C224       C1095   1.475       .  S
C225        H227   1.081       .  S
N228        N229   1.323       .  A
N228        C232   1.346       .  A
N229        C230   1.346       .  A
C230        C231   1.381       .  A
C230        H233   1.082       .  S
C231        C232   1.383       .  A
C231        C604   1.478       .  S
C232        H234   1.082       .  S
N235        N236   1.322       .  A
N235        C239   1.345       .  A
N235       Cu243   2.071       .  S
N236        C237   1.344       .  A
N236       Cu242   2.067       .  S
C237        C238   1.382       .  A
C237        H240   1.082       .  S
C238        C239   1.383       .  A
C238       C1164   1.475       .  S
C239        H241   1.082       .  S
Cu242       N245   2.067       .  S
Cu243       N253   2.072       .  S
Cu244       N246   2.081       .  S
Cu244       N252   2.081       .  S
N245        N246   1.323       .  A
N245        C249   1.344       .  A
N246        C247   1.347       .  A
C247        C248   1.384       .  A
C247        H250   1.081       .  S
C248        C249   1.380       .  A
C248        C904   1.476       .  S
C249        H251   1.081       .  S
N252        N253   1.323       .  A
N252        C256   1.346       .  A
N253        C254   1.344       .  A
C254        C255   1.382       .  A
C254        H257   1.082       .  S
C255        C256   1.384       .  A
C255        C555   1.479       .  S
C256        H258   1.082       .  S
N259        N260   1.322       .  A
N259        C263   1.346       .  A
N259       Cu267   2.069       .  S
N260        C261   1.347       .  A
N260       Cu266   2.089       .  S
C261        C262   1.387       .  A
C261        H264   1.081       .  S
C262        C263   1.384       .  A
C262        C975   1.485       .  S
C263        H265   1.080       .  S
Cu266       N269   2.089       .  S
Cu267       N277   2.069       .  S
Cu268       N270   2.082       .  S
Cu268       N276   2.081       .  S
N269        N270   1.324       .  A
N269        C273   1.348       .  A
N270        C271   1.346       .  A
C271        C272   1.382       .  A
C271        H274   1.081       .  S
C272        C273   1.383       .  A
C272        C815   1.479       .  S
C273        H275   1.081       .  S
N276        N277   1.323       .  A
N276        C280   1.348       .  A
N277        C278   1.343       .  A
C278        C279   1.380       .  A
C278        H281   1.082       .  S
C279        C280   1.384       .  A
C279        C544   1.477       .  S
C280        H282   1.082       .  S
C283        C284   1.403       .  A
C283        C288   1.401       .  A
C283        C564   1.483       .  S
C284        C285   1.405       .  A
C284        H289   1.084       .  S
C285        C286   1.407   1_565  A
C285        C575   1.489       .  S
C286        C287   1.403       .  A
C286        H290   1.084       .  S
C287        C288   1.401   1_545  A
C287        C535   1.478       .  S
C288        H291   1.084       .  S
C292        C293   1.402       .  A
C292        C297   1.404       .  A
C292        C735   1.480       .  S
C293        C294   1.404       .  A
C293        H298   1.083       .  S
C294        C295   1.404       .  A
C294        C524   1.481       .  S
C295        C296   1.403       .  A
C295        H299   1.084       .  S
C296        C297   1.402       .  A
C296        C624   1.481       .  S
C297        H300   1.084       .  S
C301        C302   1.403       .  A
C301        C306   1.402       .  A
C301        C484   1.481       .  S
C302        C303   1.407       .  A
C302        H307   1.084       .  S
C303        C304   1.410   1_655  A
C303        C455   1.495       .  S
C304        C305   1.407       .  A
C304        H308   1.084       .  S
C305        C306   1.402   1_455  A
C305        C504   1.486       .  S
C306        H309   1.084       .  S
N310        N311   1.323       .  A
N310        C314   1.348       .  A
N310       Cu318   2.089       .  S
N311        C312   1.345       .  A
N311       Cu317   2.071       .  S
C312        C313   1.381       .  A
C312        H315   1.081       .  S
C313        C314   1.386       .  A
C313       C1004   1.480       .  S
C314        H316   1.079       .  S
Cu317       N320   2.071       .  S
Cu318       N328   2.089       .  S
Cu319       N321   2.075       .  S
Cu319       N327   2.076       .  S
N320        N321   1.322       .  A
N320        C324   1.344       .  A
N321        C322   1.346       .  A
C322        C323   1.383       .  A
C322        H325   1.082       .  S
C323        C324   1.381       .  A
C323        C515   1.474       .  S
C324        H326   1.082       .  S
N327        N328   1.324       .  A
N327        C331   1.345       .  A
N328        C329   1.349       .  A
C329        C330   1.386       .  A
C329        H332   1.079       .  S
C330        C331   1.381       .  A
C330        C495   1.481       .  S
C331        H333   1.080       .  S
N334        N335   1.323       .  A
N334        C338   1.346       .  A
N334       Cu342   2.077       .  S
N335        C336   1.345       .  A
N335       Cu341   2.072       .  S
C336        C337   1.381       .  A
C336        H339   1.081       .  S
C337        C338   1.382       .  A
C337       C1044   1.474       .  S
C338        H340   1.081       .  S
Cu341       N344   2.072       .  S
Cu342       N352   2.077       .  S
Cu343       N345   2.080       .  S
Cu343       N351   2.080       .  S
N344        N345   1.322       .  A
N344        C348   1.345       .  A
N345        C346   1.347       .  A
C346        C347   1.384       .  A
C346        H349   1.080       .  S
C347        C348   1.382       .  A
C347        C804   1.479       .  S
C348        H350   1.081       .  S
N351        N352   1.323       .  A
N351        C355   1.346       .  A
N352        C353   1.347       .  A
C353        C354   1.382       .  A
C353        H356   1.079       .  S
C354        C355   1.382       .  A
C354        C475   1.476       .  S
C355        H357   1.080       .  S
N358        N359   1.324       .  A
N358        C362   1.347       .  A
N358       Cu366   2.081       .  S
N359        C360   1.345       .  A
N359       Cu365   2.077       .  S
C360        C361   1.380       .  A
C360        H363   1.082       .  S
C361        C362   1.382       .  A
C361       C1184   1.474       .  S
C362        H364   1.082       .  S
Cu365       N368   2.076       .  S
Cu366       N376   2.081       .  S
Cu367       N369   2.074       .  S
Cu367       N375   2.075       .  S
N368        N369   1.322       .  A
N368        C372   1.346       .  A
N369        C370   1.346       .  A
C370        C371   1.384       .  A
C370        H373   1.080       .  S
C371        C372   1.385       .  A
C371        C844   1.482       .  S
C372        H374   1.081       .  S
N375        N376   1.323       .  A
N375        C379   1.345       .  A
N376        C377   1.348       .  A
C377        C378   1.385       .  A
C377        H380   1.080       .  S
C378        C379   1.382       .  A
C378        C435   1.480       .  S
C379        H381   1.080       .  S
N382        N383   1.322       .  A
N382        C386   1.346       .  A
N382       Cu390   2.075       .  S
N383        C384   1.347       .  A
N383       Cu389   2.078       .  S
C384        C385   1.382       .  A
C384        H387   1.081       .  S
C385        C386   1.382       .  A
C385        C944   1.476       .  S
C386        H388   1.081       .  S
Cu389       N392   2.078       .  S
Cu390       N400   2.075       .  S
Cu391       N393   2.085       .  S
Cu391       N399   2.085       .  S
N392        N393   1.323       .  A
N392        C396   1.345       .  A
N393        C394   1.349       .  A
C394        C395   1.385       .  A
C394        H397   1.081       .  S
C395        C396   1.382       .  A
C395       C1084   1.479       .  S
C396        H398   1.082       .  S
N399        N400   1.324       .  A
N399        C403   1.347       .  A
N400        C401   1.346       .  A
C401        C402   1.381       .  A
C401        H404   1.079       .  S
C402        C403   1.383       .  A
C402        C415   1.477       .  S
C403        H405   1.079       .  S
C406        C407   1.404       .  A
C406        C411   1.403       .  A
C406        C444   1.482       .  S
C407        C408   1.405       .  A
C407        H412   1.084       .  S
C408        C409   1.406   1_655  A
C408        C464   1.487       .  S
C409        C410   1.404   1_455  A
C409        H413   1.084       .  S
C410        C411   1.402       .  A
C410        C424   1.480   1_655  S
C411        H414   1.084       .  S
C415        C416   1.410       .  A
C415        C420   1.409       .  A
C416        C417   1.408       .  A
C416       Br428   1.929       .  S
C417        C418   1.409       .  A
C417       Br432   1.929       .  S
C418        C419   1.409       .  A
C418        C421   1.486       .  S
C419        C420   1.408       .  A
C419       Br427   1.929       .  S
C420       Br431   1.929       .  S
C421        C422   1.410       .  A
C421        C426   1.409       .  A
C422        C423   1.409       .  A
C422       Br433   1.929       .  S
C423        C424   1.409       .  A
C423       Br429   1.928       .  S
C424        C425   1.409       .  A
C425        C426   1.407       .  A
C425       Br434   1.929       .  S
C426       Br430   1.929       .  S
C435        C436   1.411       .  A
C435        C440   1.411       .  A
C436        C437   1.408       .  A
C436       Br448   1.930       .  S
C437        C438   1.409       .  A
C437       Br452   1.929       .  S
C438        C439   1.409       .  A
C438        C441   1.486       .  S
C439        C440   1.408       .  A
C439       Br447   1.930       .  S
C440       Br451   1.930       .  S
C441        C442   1.410       .  A
C441        C446   1.409       .  A
C442        C443   1.408       .  A
C442       Br453   1.930       .  S
C443        C444   1.410       .  A
C443       Br449   1.930       .  S
C444        C445   1.411       .  A
C445        C446   1.408       .  A
C445       Br454   1.930       .  S
C446       Br450   1.928       .  S
C455        C456   1.417       .  A
C455        C460   1.415       .  A
C456        C457   1.411       .  A
C456       Br468   1.932       .  S
C457        C458   1.410   1_545  A
C457       Br472   1.930   1_545  S
C458        C459   1.408   1_565  A
C458        C461   1.491       .  S
C459        C460   1.408       .  A
C459       Br467   1.931   1_645  S
C460       Br471   1.927   1_655  S
C461        C462   1.410       .  A
C461        C466   1.411       .  A
C462        C463   1.409       .  A
C462       Br473   1.930   1_655  S
C463        C464   1.413       .  A
C463       Br469   1.930   1_655  S
C464        C465   1.412       .  A
C465        C466   1.410       .  A
C465       Br474   1.931       .  S
C466       Br470   1.930       .  S
C475        C476   1.408       .  A
C475        C480   1.409       .  A
C476        C477   1.408       .  A
C476       Br488   1.928       .  S
C477        C478   1.410       .  A
C477       Br492   1.929       .  S
C478        C479   1.409       .  A
C478        C481   1.486       .  S
C479        C480   1.408       .  A
C479       Br487   1.928       .  S
C480       Br491   1.929       .  S
C481        C482   1.410       .  A
C481        C486   1.409       .  A
C482        C483   1.409       .  A
C482       Br493   1.928       .  S
C483        C484   1.409       .  A
C483       Br489   1.928       .  S
C484        C485   1.410       .  A
C485        C486   1.407       .  A
C485       Br494   1.929       .  S
C486       Br490   1.930       .  S
C495        C496   1.411       .  A
C495        C500   1.411       .  A
C496        C497   1.408       .  A
C496       Br508   1.930       .  S
C497        C498   1.410       .  A
C497       Br512   1.930       .  S
C498        C499   1.410       .  A
C498        C501   1.488       .  S
C499        C500   1.409       .  A
C499       Br507   1.929       .  S
C500       Br511   1.929       .  S
C501        C502   1.409       .  A
C501        C506   1.409       .  A
C502        C503   1.409       .  A
C502       Br513   1.929       .  S
C503        C504   1.411       .  A
C503       Br509   1.928       .  S
C504        C505   1.411       .  A
C505        C506   1.409       .  A
C505       Br514   1.927       .  S
C506       Br510   1.930       .  S
C515        C516   1.408       .  A
C515        C520   1.409       .  A
C516        C517   1.408       .  A
C516       Br528   1.928       .  S
C517        C518   1.410       .  A
C517       Br532   1.928       .  S
C518        C519   1.409       .  A
C518        C521   1.484       .  S
C519        C520   1.406       .  A
C519       Br527   1.929       .  S
C520       Br531   1.930       .  S
C521        C522   1.409       .  A
C521        C526   1.409       .  A
C522        C523   1.408       .  A
C522       Br533   1.929       .  S
C523        C524   1.410       .  A
C523       Br529   1.930       .  S
C524        C525   1.410       .  A
C525        C526   1.407       .  A
C525       Br534   1.928       .  S
C526       Br530   1.929       .  S
C535        C536   1.409       .  A
C535        C540   1.409       .  A
C536        C537   1.408       .  A
C536       Br548   1.928       .  S
C537        C538   1.409       .  A
C537       Br552   1.928       .  S
C538        C539   1.409       .  A
C538        C541   1.484       .  S
C539        C540   1.406       .  A
C539       Br547   1.930       .  S
C540       Br551   1.930       .  S
C541        C542   1.408       .  A
C541        C546   1.410       .  A
C542        C543   1.406       .  A
C542       Br553   1.929       .  S
C543        C544   1.411       .  A
C543       Br549   1.930       .  S
C544        C545   1.409       .  A
C545        C546   1.408       .  A
C545       Br554   1.929       .  S
C546       Br550   1.930       .  S
C555        C556   1.411       .  A
C555        C560   1.412       .  A
C556        C557   1.407       .  A
C556       Br568   1.929       .  S
C557        C558   1.408       .  A
C557       Br572   1.930       .  S
C558        C559   1.408       .  A
C558        C561   1.483       .  S
C559        C560   1.407       .  A
C559       Br567   1.930       .  S
C560       Br571   1.930       .  S
C561        C562   1.408       .  A
C561        C566   1.408       .  A
C562        C563   1.407       .  A
C562       Br573   1.930       .  S
C563        C564   1.413       .  A
C563       Br569   1.932       .  S
C564        C565   1.412       .  A
C565        C566   1.406       .  A
C565       Br574   1.931       .  S
C566       Br570   1.929       .  S
C575        C576   1.415       .  A
C575        C580   1.416       .  A
C576        C577   1.407       .  A
C576       Br588   1.933   1_565  S
C577        C578   1.409       .  A
C577       Br592   1.931   1_565  S
C578        C579   1.409       .  A
C578        C581   1.488       .  S
C579        C580   1.408       .  A
C579       Br587   1.931       .  S
C580       Br591   1.932       .  S
C581        C582   1.411   1_556  A
C581        C586   1.411   1_556  A
C582        C583   1.407       .  A
C582       Br593   1.931   1_564  S
C583        C584   1.410       .  A
C583       Br589   1.929   1_565  S
C584        C585   1.411       .  A
C585        C586   1.408       .  A
C585       Br594   1.928       .  S
C586       Br590   1.930   1_554  S
C595        C596   1.412       .  A
C595        C600   1.411       .  A
C596        C597   1.409       .  A
C596       Br608   1.930       .  S
C597        C598   1.409       .  A
C597       Br612   1.929       .  S
C598        C599   1.408       .  A
C598        C601   1.486       .  S
C599        C600   1.407       .  A
C599       Br607   1.930       .  S
C600       Br611   1.928       .  S
C601        C602   1.409       .  A
C601        C606   1.409       .  A
C602        C603   1.409       .  A
C602       Br613   1.929       .  S
C603        C604   1.410       .  A
C603       Br609   1.929       .  S
C604        C605   1.410       .  A
C605        C606   1.407       .  A
C605       Br614   1.929       .  S
C606       Br610   1.930       .  S
C615        C616   1.410       .  A
C615        C620   1.409       .  A
C616        C617   1.410       .  A
C616       Br628   1.928       .  S
C617        C618   1.410       .  A
C617       Br632   1.928       .  S
C618        C619   1.410       .  A
C618        C621   1.488       .  S
C619        C620   1.408       .  A
C619       Br627   1.930       .  S
C620       Br631   1.929       .  S
C621        C622   1.410       .  A
C621        C626   1.410       .  A
C622        C623   1.409       .  A
C622       Br633   1.929       .  S
C623        C624   1.409       .  A
C623       Br629   1.929       .  S
C624        C625   1.409       .  A
C625        C626   1.409       .  A
C625       Br634   1.929       .  S
C626       Br630   1.928       .  S
C635        C636   1.409       .  A
C635        C640   1.410       .  A
C636        C637   1.408       .  A
C636       Br648   1.929       .  S
C637        C638   1.411       .  A
C637       Br652   1.930       .  S
C638        C639   1.411       .  A
C638        C641   1.492       .  S
C639        C640   1.411       .  A
C639       Br647   1.928       .  S
C640       Br651   1.928       .  S
C641        C642   1.411       .  A
C641        C646   1.411       .  A
C642        C643   1.410       .  A
C642       Br653   1.929       .  S
C643        C644   1.410       .  A
C643       Br649   1.929       .  S
C644        C645   1.410       .  A
C645        C646   1.410       .  A
C645       Br654   1.929       .  S
C646       Br650   1.929       .  S
C655        C656   1.412       .  A
C655        C660   1.413       .  A
C656        C657   1.410       .  A
C656       Br668   1.925       .  S
C657        C658   1.409       .  A
C657       Br672   1.930       .  S
C658        C659   1.408       .  A
C658        C661   1.489       .  S
C659        C660   1.410       .  A
C659       Br667   1.929       .  S
C660       Br671   1.925       .  S
C661        C662   1.409       .  A
C661        C666   1.409       .  A
C662        C663   1.409       .  A
C662       Br673   1.929       .  S
C663        C664   1.412       .  A
C663       Br669   1.930       .  S
C664        C665   1.412       .  A
C665        C666   1.410       .  A
C665       Br674   1.929       .  S
C666       Br670   1.929       .  S
C675        C676   1.409       .  A
C675        C680   1.409       .  A
C676        C677   1.407       .  A
C676       Br688   1.930       .  S
C677        C678   1.409       .  A
C677       Br692   1.929       .  S
C678        C679   1.410       .  A
C678        C681   1.483       .  S
C679        C680   1.407       .  A
C679       Br687   1.930       .  S
C680       Br691   1.929       .  S
C681        C682   1.407       .  A
C681        C686   1.408       .  A
C682        C683   1.407       .  A
C682       Br693   1.931       .  S
C683        C684   1.414       .  A
C683       Br689   1.926       .  S
C684        C685   1.414       .  A
C685        C686   1.407       .  A
C685       Br694   1.931       .  S
C686       Br690   1.930       .  S
C695        C696   1.415       .  A
C695        C700   1.413       .  A
C696        C697   1.409       .  A
C696       Br708   1.931       .  S
C697        C698   1.409       .  A
C697       Br712   1.930       .  S
C698        C699   1.409       .  A
C698        C701   1.490       .  S
C699        C700   1.409       .  A
C699       Br707   1.931   1_556  S
C700       Br711   1.926   1_556  S
C701        C702   1.410   1_655  A
C701        C706   1.409   1_655  A
C702        C703   1.411       .  A
C702       Br713   1.930   1_455  S
C703        C704   1.416       .  A
C703       Br709   1.930       .  S
C704        C705   1.413       .  A
C705        C706   1.407       .  A
C705       Br714   1.928   1_556  S
C706       Br710   1.932   1_456  S
C715        C716   1.409       .  A
C715        C720   1.408       .  A
C716        C717   1.408       .  A
C716       Br728   1.929       .  S
C717        C718   1.409       .  A
C717       Br732   1.929       .  S
C718        C719   1.410       .  A
C718        C721   1.484       .  S
C719        C720   1.407       .  A
C719       Br727   1.930       .  S
C720       Br731   1.929       .  S
C721        C722   1.409       .  A
C721        C726   1.410       .  A
C722        C723   1.407       .  A
C722       Br733   1.928       .  S
C723        C724   1.409       .  A
C723       Br729   1.929       .  S
C724        C725   1.409       .  A
C725        C726   1.407       .  A
C725       Br734   1.929       .  S
C726       Br730   1.930       .  S
C735        C736   1.410       .  A
C735        C740   1.409       .  A
C736        C737   1.408       .  A
C736       Br748   1.928       .  S
C737        C738   1.409       .  A
C737       Br752   1.929       .  S
C738        C739   1.410       .  A
C738        C741   1.485       .  S
C739        C740   1.407       .  A
C739       Br747   1.929       .  S
C740       Br751   1.929       .  S
C741        C742   1.409       .  A
C741        C746   1.409       .  A
C742        C743   1.407       .  A
C742       Br753   1.930       .  S
C743        C744   1.409       .  A
C743       Br749   1.930       .  S
C744        C745   1.410       .  A
C745        C746   1.409       .  A
C745       Br754   1.929       .  S
C746       Br750   1.928       .  S
C755        C756   1.410       .  A
C755        C760   1.410       .  A
C756        C757   1.409       .  A
C756       Br768   1.929       .  S
C757        C758   1.410       .  A
C757       Br772   1.928       .  S
C758        C759   1.409       .  A
C758        C761   1.487       .  S
C759        C760   1.407       .  A
C759       Br767   1.930       .  S
C760       Br771   1.927       .  S
C761        C762   1.409       .  A
C761        C766   1.410       .  A
C762        C763   1.409       .  A
C762       Br773   1.929       .  S
C763        C764   1.411       .  A
C763       Br769   1.929       .  S
C764        C765   1.410       .  A
C765        C766   1.408       .  A
C765       Br774   1.929       .  S
C766       Br770   1.930       .  S
C775        C776   1.408       .  A
C775        C780   1.409       .  A
C776        C777   1.407       .  A
C776       Br788   1.929       .  S
C777        C778   1.410       .  A
C777       Br792   1.930       .  S
C778        C779   1.409       .  A
C778        C781   1.484       .  S
C779        C780   1.407       .  A
C779       Br787   1.928       .  S
C780       Br791   1.929       .  S
C781        C782   1.410       .  A
C781        C786   1.409       .  A
C782        C783   1.408       .  A
C782       Br793   1.929       .  S
C783        C784   1.408       .  A
C783       Br789   1.928       .  S
C784        C785   1.409       .  A
C785        C786   1.407       .  A
C785       Br794   1.929       .  S
C786       Br790   1.929       .  S
C795        C796   1.408       .  A
C795        C800   1.408       .  A
C796        C797   1.406       .  A
C796       Br808   1.929       .  S
C797        C798   1.409       .  A
C797       Br812   1.929       .  S
C798        C799   1.410       .  A
C798        C801   1.483       .  S
C799        C800   1.407       .  A
C799       Br807   1.929       .  S
C800       Br811   1.929       .  S
C801        C802   1.408       .  A
C801        C806   1.408       .  A
C802        C803   1.407       .  A
C802       Br813   1.930       .  S
C803        C804   1.411       .  A
C803       Br809   1.930       .  S
C804        C805   1.411       .  A
C805        C806   1.408       .  A
C805       Br814   1.930       .  S
C806       Br810   1.930       .  S
C815        C816   1.409       .  A
C815        C820   1.409       .  A
C816        C817   1.409       .  A
C816       Br828   1.929       .  S
C817        C818   1.410       .  A
C817       Br832   1.929       .  S
C818        C819   1.410       .  A
C818        C821   1.488       .  S
C819        C820   1.409       .  A
C819       Br827   1.929       .  S
C820       Br831   1.928       .  S
C821        C822   1.410       .  A
C821        C826   1.410       .  A
C822        C823   1.408       .  A
C822       Br833   1.929       .  S
C823        C824   1.409       .  A
C823       Br829   1.929       .  S
C824        C825   1.408       .  A
C825        C826   1.408       .  A
C825       Br834   1.929       .  S
C826       Br830   1.928       .  S
C835        C836   1.410       .  A
C835        C840   1.411       .  A
C836        C837   1.406       .  A
C836       Br848   1.929       .  S
C837        C838   1.409       .  A
C837       Br852   1.930       .  S
C838        C839   1.409       .  A
C838        C841   1.485       .  S
C839        C840   1.408       .  A
C839       Br847   1.929       .  S
C840       Br851   1.930       .  S
C841        C842   1.409       .  A
C841        C846   1.408       .  A
C842        C843   1.408       .  A
C842       Br853   1.930       .  S
C843        C844   1.413       .  A
C843       Br849   1.930       .  S
C844        C845   1.413       .  A
C845        C846   1.408       .  A
C845       Br854   1.930       .  S
C846       Br850   1.931       .  S
C855        C856   1.409       .  A
C855        C860   1.410       .  A
C856        C857   1.405       .  A
C856       Br868   1.930       .  S
C857        C858   1.409       .  A
C857       Br872   1.930       .  S
C858        C859   1.409       .  A
C858        C861   1.481       .  S
C859        C860   1.407       .  A
C859       Br867   1.929       .  S
C860       Br871   1.928       .  S
C861        C862   1.408       .  A
C861        C866   1.408       .  A
C862        C863   1.406       .  A
C862       Br873   1.930       .  S
C863        C864   1.411       .  A
C863       Br869   1.930       .  S
C864        C865   1.410       .  A
C865        C866   1.407       .  A
C865       Br874   1.929       .  S
C866       Br870   1.930       .  S
C875        C876   1.411       .  A
C875        C880   1.411       .  A
C876        C877   1.407       .  A
C876       Br888   1.930       .  S
C877        C878   1.409       .  A
C877       Br892   1.930       .  S
C878        C879   1.410       .  A
C878        C881   1.486       .  S
C879        C880   1.409       .  A
C879       Br887   1.930       .  S
C880       Br891   1.929       .  S
C881        C882   1.410       .  A
C881        C886   1.410       .  A
C882        C883   1.408       .  A
C882       Br893   1.929       .  S
C883        C884   1.410       .  A
C883       Br889   1.929       .  S
C884        C885   1.410       .  A
C885        C886   1.408       .  A
C885       Br894   1.928       .  S
C886       Br890   1.930       .  S
C895        C896   1.410       .  A
C895        C900   1.410       .  A
C896        C897   1.407       .  A
C896       Br908   1.930       .  S
C897        C898   1.409       .  A
C897       Br912   1.930       .  S
C898        C899   1.408       .  A
C898        C901   1.482       .  S
C899        C900   1.406       .  A
C899       Br907   1.929       .  S
C900       Br911   1.930       .  S
C901        C902   1.409       .  A
C901        C906   1.408       .  A
C902        C903   1.407       .  A
C902       Br913   1.930       .  S
C903        C904   1.410       .  A
C903       Br909   1.930       .  S
C904        C905   1.410       .  A
C905        C906   1.406       .  A
C905       Br914   1.930       .  S
C906       Br910   1.930       .  S
C915        C916   1.410       .  A
C915        C920   1.411       .  A
C916        C917   1.407       .  A
C916       Br928   1.929       .  S
C917        C918   1.408       .  A
C917       Br932   1.929       .  S
C918        C919   1.409       .  A
C918        C921   1.485       .  S
C919        C920   1.409       .  A
C919       Br927   1.929       .  S
C920       Br931   1.929       .  S
C921        C922   1.409       .  A
C921        C926   1.410       .  A
C922        C923   1.406       .  A
C922       Br933   1.930       .  S
C923        C924   1.409       .  A
C923       Br929   1.930       .  S
C924        C925   1.409       .  A
C925        C926   1.409       .  A
C925       Br934   1.929       .  S
C926       Br930   1.928       .  S
C935        C936   1.409       .  A
C935        C940   1.409       .  A
C936        C937   1.408       .  A
C936       Br948   1.929       .  S
C937        C938   1.409       .  A
C937       Br952   1.929       .  S
C938        C939   1.410       .  A
C938        C941   1.486       .  S
C939        C940   1.408       .  A
C939       Br947   1.929       .  S
C940       Br951   1.929       .  S
C941        C942   1.410       .  A
C941        C946   1.409       .  A
C942        C943   1.408       .  A
C942       Br953   1.929       .  S
C943        C944   1.408       .  A
C943       Br949   1.929       .  S
C944        C945   1.409       .  A
C945        C946   1.408       .  A
C945       Br954   1.929       .  S
C946       Br950   1.928       .  S
C955        C956   1.409       .  A
C955        C960   1.409       .  A
C956        C957   1.408       .  A
C956       Br968   1.929       .  S
C957        C958   1.410       .  A
C957       Br972   1.928       .  S
C958        C959   1.410       .  A
C958        C961   1.487       .  S
C959        C960   1.408       .  A
C959       Br967   1.929       .  S
C960       Br971   1.929       .  S
C961        C962   1.410       .  A
C961        C966   1.409       .  A
C962        C963   1.409       .  A
C962       Br973   1.930       .  S
C963        C964   1.411       .  A
C963       Br969   1.929       .  S
C964        C965   1.412       .  A
C965        C966   1.409       .  A
C965       Br974   1.930       .  S
C966       Br970   1.929       .  S
C975        C976   1.414       .  A
C975        C980   1.412       .  A
C976        C977   1.410       .  A
C976       Br988   1.930       .  S
C977        C978   1.409       .  A
C977       Br992   1.929       .  S
C978        C979   1.408       .  A
C978        C981   1.488       .  S
C979        C980   1.408       .  A
C979       Br987   1.929       .  S
C980       Br991   1.930       .  S
C981        C982   1.410       .  A
C981        C986   1.409       .  A
C982        C983   1.407       .  A
C982       Br993   1.931       .  S
C983        C984   1.411       .  A
C983       Br989   1.930       .  S
C984        C985   1.412       .  A
C985        C986   1.411       .  A
C985       Br994   1.929       .  S
C986       Br990   1.928       .  S
C995        C996   1.410       .  A
C995       C1000   1.409       .  A
C996        C997   1.409       .  A
C996      Br1008   1.929       .  S
C997        C998   1.410       .  A
C997      Br1012   1.929       .  S
C998        C999   1.409       .  A
C998       C1001   1.486       .  S
C999       C1000   1.407       .  A
C999      Br1007   1.929       .  S
C1000     Br1011   1.929       .  S
C1001      C1002   1.409       .  A
C1001      C1006   1.409       .  A
C1002      C1003   1.410       .  A
C1002     Br1013   1.928       .  S
C1003      C1004   1.411       .  A
C1003     Br1009   1.929       .  S
C1004      C1005   1.411       .  A
C1005      C1006   1.407       .  A
C1005     Br1014   1.930       .  S
C1006     Br1010   1.930       .  S
C1015      C1016   1.412       .  A
C1015      C1020   1.413       .  A
C1016      C1017   1.409       .  A
C1016     Br1028   1.930       .  S
C1017      C1018   1.409       .  A
C1017     Br1032   1.929       .  S
C1018      C1019   1.407       .  A
C1018      C1021   1.483       .  S
C1019      C1020   1.406       .  A
C1019     Br1027   1.931       .  S
C1020     Br1031   1.930       .  S
C1021      C1022   1.409       .  A
C1021      C1026   1.408       .  A
C1022      C1023   1.408       .  A
C1022     Br1033   1.929       .  S
C1023      C1024   1.411       .  A
C1023     Br1029   1.930       .  S
C1024      C1025   1.410       .  A
C1025      C1026   1.407       .  A
C1025     Br1034   1.929       .  S
C1026     Br1030   1.930       .  S
C1035      C1036   1.409       .  A
C1035      C1040   1.408       .  A
C1036      C1037   1.406       .  A
C1036     Br1048   1.929       .  S
C1037      C1038   1.409       .  A
C1037     Br1052   1.930       .  S
C1038      C1039   1.410       .  A
C1038      C1041   1.483       .  S
C1039      C1040   1.407       .  A
C1039     Br1047   1.929       .  S
C1040     Br1051   1.928       .  S
C1041      C1042   1.409       .  A
C1041      C1046   1.409       .  A
C1042      C1043   1.407       .  A
C1042     Br1053   1.929       .  S
C1043      C1044   1.409       .  A
C1043     Br1049   1.929       .  S
C1044      C1045   1.408       .  A
C1045      C1046   1.407       .  A
C1045     Br1054   1.929       .  S
C1046     Br1050   1.930       .  S
C1055      C1056   1.409       .  A
C1055      C1060   1.410       .  A
C1056      C1057   1.409       .  A
C1056     Br1068   1.928       .  S
C1057      C1058   1.410       .  A
C1057     Br1072   1.929       .  S
C1058      C1059   1.410       .  A
C1058      C1061   1.489       .  S
C1059      C1060   1.409       .  A
C1059     Br1067   1.929       .  S
C1060     Br1071   1.928       .  S
C1061      C1062   1.411       .  A
C1061      C1066   1.411       .  A
C1062      C1063   1.409       .  A
C1062     Br1073   1.928       .  S
C1063      C1064   1.409       .  A
C1063     Br1069   1.929       .  S
C1064      C1065   1.408       .  A
C1065      C1066   1.408       .  A
C1065     Br1074   1.929       .  S
C1066     Br1070   1.929       .  S
C1075      C1076   1.411       .  A
C1075      C1080   1.411       .  A
C1076      C1077   1.407       .  A
C1076     Br1088   1.930       .  S
C1077      C1078   1.409       .  A
C1077     Br1092   1.930       .  S
C1078      C1079   1.410       .  A
C1078      C1081   1.487       .  S
C1079      C1080   1.410       .  A
C1079     Br1087   1.928       .  S
C1080     Br1091   1.929       .  S
C1081      C1082   1.409       .  A
C1081      C1086   1.410       .  A
C1082      C1083   1.407       .  A
C1082     Br1093   1.929       .  S
C1083      C1084   1.410       .  A
C1083     Br1089   1.930       .  S
C1084      C1085   1.410       .  A
C1085      C1086   1.410       .  A
C1085     Br1094   1.928       .  S
C1086     Br1090   1.929       .  S
C1095      C1096   1.409       .  A
C1095      C1100   1.409       .  A
C1096      C1097   1.408       .  A
C1096     Br1108   1.928       .  S
C1097      C1098   1.410       .  A
C1097     Br1112   1.929       .  S
C1098      C1099   1.409       .  A
C1098      C1101   1.484       .  S
C1099      C1100   1.407       .  A
C1099     Br1107   1.929       .  S
C1100     Br1111   1.929       .  S
C1101      C1102   1.410       .  A
C1101      C1106   1.409       .  A
C1102      C1103   1.407       .  A
C1102     Br1113   1.928       .  S
C1103      C1104   1.408       .  A
C1103     Br1109   1.929       .  S
C1104      C1105   1.409       .  A
C1105      C1106   1.407       .  A
C1105     Br1114   1.930       .  S
C1106     Br1110   1.929       .  S
C1115      C1116   1.411       .  A
C1115      C1120   1.410       .  A
C1116      C1117   1.409       .  A
C1116     Br1128   1.929       .  S
C1117      C1118   1.409       .  A
C1117     Br1132   1.929       .  S
C1118      C1119   1.409       .  A
C1118      C1121   1.484       .  S
C1119      C1120   1.406       .  A
C1119     Br1127   1.929       .  S
C1120     Br1131   1.931       .  S
C1121      C1122   1.409       .  A
C1121      C1126   1.409       .  A
C1122      C1123   1.407       .  A
C1122     Br1133   1.929       .  S
C1123      C1124   1.409       .  A
C1123     Br1129   1.929       .  S
C1124      C1125   1.408       .  A
C1125      C1126   1.408       .  A
C1125     Br1134   1.928       .  S
C1126     Br1130   1.929       .  S
C1135      C1136   1.408       .  A
C1135      C1140   1.409       .  A
C1136      C1137   1.406       .  A
C1136     Br1148   1.929       .  S
C1137      C1138   1.410       .  A
C1137     Br1152   1.930       .  S
C1138      C1139   1.409       .  A
C1138      C1141   1.482       .  S
C1139      C1140   1.407       .  A
C1139     Br1147   1.929       .  S
C1140     Br1151   1.929       .  S
C1141      C1142   1.410       .  A
C1141      C1146   1.409       .  A
C1142      C1143   1.406       .  A
C1142     Br1153   1.929       .  S
C1143      C1144   1.407       .  A
C1143     Br1149   1.929       .  S
C1144      C1145   1.409       .  A
C1145      C1146   1.406       .  A
C1145     Br1154   1.930       .  S
C1146     Br1150   1.929       .  S
C1155      C1156   1.409       .  A
C1155      C1160   1.409       .  A
C1156      C1157   1.406       .  A
C1156     Br1168   1.929       .  S
C1157      C1158   1.409       .  A
C1157     Br1172   1.930       .  S
C1158      C1159   1.408       .  A
C1158      C1161   1.482       .  S
C1159      C1160   1.406       .  A
C1159     Br1167   1.929       .  S
C1160     Br1171   1.929       .  S
C1161      C1162   1.408       .  A
C1161      C1166   1.408       .  A
C1162      C1163   1.406       .  A
C1162     Br1173   1.930       .  S
C1163      C1164   1.411       .  A
C1163     Br1169   1.930       .  S
C1164      C1165   1.410       .  A
C1165      C1166   1.407       .  A
C1165     Br1174   1.930       .  S
C1166     Br1170   1.930       .  S
C1175      C1176   1.408       .  A
C1175      C1180   1.409       .  A
C1176      C1177   1.406       .  A
C1176     Br1188   1.929       .  S
C1177      C1178   1.410       .  A
C1177     Br1192   1.929       .  S
C1178      C1179   1.409       .  A
C1178      C1181   1.482       .  S
C1179      C1180   1.406       .  A
C1179     Br1187   1.928       .  S
C1180     Br1191   1.930       .  S
C1181      C1182   1.409       .  A
C1181      C1186   1.409       .  A
C1182      C1183   1.407       .  A
C1182     Br1193   1.930       .  S
C1183      C1184   1.409       .  A
C1183     Br1189   1.928       .  S
C1184      C1185   1.409       .  A
C1185      C1186   1.407       .  A
C1185     Br1194   1.929       .  S
C1186     Br1190   1.929       .  S
