geometry optimzed in LAMMPS
_audit_creation_date              2020-12-01 
_audit_creation_method            'lammps2cif' 
_symmetry_space_group_name_H-M    'P1' 
_symmetry_Int_Tables_number       1 
_symmetry_cell_setting            triclinic 
loop_ 
_symmetry_equiv_pos_as_xyz 
  x,y,z 
_cell_length_a                    41.38591953 
_cell_length_b                    41.40696725673592 
_cell_length_c                    32.14882538828128 
_cell_angle_alpha                 90.17938521434806 
_cell_angle_beta                  89.9538125984619 
_cell_angle_gamma                 66.23428843496767 
loop_ 
_atom_site_label 
_atom_site_type_symbol 
_atom_site_fract_x 
_atom_site_fract_y 
_atom_site_fract_z 
_atom_site_charge 
O1          O  0.09226184  0.46947276  0.08396288    -0.75300
O2          O  0.09098855  0.01460622  0.04557949    -0.54200
C3          C  0.10306215  0.49348719  0.07400780     0.78500
O4          O  0.03131813  0.39886212  0.42129946    -0.59900
O5          O  0.48270107  0.40375505  0.45723359    -0.52900
C6          C  0.50781355  0.38875097  0.43082995     0.70500
O7          O  0.09782973  0.46294218  0.42135327    -0.74400
O8          O  0.09056976  0.01605001  0.45422292    -0.55000
C9          C  0.10807102  0.48780483  0.42980556     0.76500
O10         O  0.02894711  0.40357201  0.08600500    -0.59600
O11         O  0.48134172  0.40633611  0.04718039    -0.52700
C12         C  0.50415698  0.39375481  0.07637269     0.73100
Zr13       Zr  0.04591382  0.45078907  0.06400640     2.54700
O14         O  0.10095247  0.39825377  0.06388760    -0.80100
O15         O  0.04365550  0.45292531  0.13967299    -0.93500
Zr16       Zr  0.05157810  0.44409989  0.44373787     2.64700
O17         O  0.10383424  0.39118377  0.45953948    -0.98500
O18         O  0.06252873  0.43330706  0.36952879    -0.80600
O19         O  0.06626804  0.46672627  0.00162072    -0.83900
O20         O  0.02931148  0.42883934  0.00339703    -2.18600
O21         O  0.41283035  0.01904714  0.08107136    -0.67300
O22         O  0.41672378  0.47063070  0.04875447    -0.51900
C23         C  0.40236280  0.99441115  0.07226680     0.71500
O24         O  0.47803730  0.08059572  0.41047371    -0.60200
O25         O  0.02338139  0.07994957  0.45061600    -0.52200
C26         C  0.00000480  0.09258145  0.42189547     0.73300
O27         O  0.41747529  0.01090921  0.41199380    -0.71600
O28         O  0.41860725  0.46704157  0.45270829    -0.50300
C29         C  0.40664234  0.98714036  0.42320493     0.74600
O30         O  0.47566671  0.08657079  0.07742047    -0.66900
O31         O  0.02622978  0.08011829  0.04216659    -0.54100
C32         C  0.00176638  0.09510509  0.06914477     0.73000
Zr33       Zr  0.45735220  0.03961870  0.05704481     2.77500
O34         O  0.40259809  0.09125871  0.04627544    -0.97700
O35         O  0.45185104  0.04876718  0.13199421    -0.78500
Zr36       Zr  0.46101415  0.03333645  0.43343622     2.70100
O37         O  0.40553971  0.08505140  0.42787418    -0.79800
O38         O  0.46627709  0.02693315  0.35807375    -0.98800
Zr39       Zr  0.03924086  0.03117013  0.49896821     2.21500
Zr40       Zr  0.46612210  0.45660283  0.00174254     2.11100
O41         O  0.43962433  0.01822428  0.49582339    -2.47500
O42         O  0.47575110  0.05698184  0.49449555    -0.79500
O43         O  0.48301338  0.47719928  0.06373669    -0.71700
O44         O  0.02378100  0.00883774  0.43715857    -2.32700
O45         O  0.02048700  0.01287741  0.06197090    -2.28900
O46         O  0.48893844  0.47001303  0.43876092    -0.73500
H47         H  0.03900625  0.40297199  0.50720780     0.78500
H48         H  0.03242707  0.01633434  0.41273864     0.79600
H49         H  0.41488946  0.02704660  0.99488970     0.81800
H50         H  0.02813977  0.02214658  0.08587584     0.79400
H51         H  0.04827467  0.45624316  0.35637756     0.42400
H52         H  0.47106624  0.00183667  0.35276991     0.41400
H53         H  0.40572932  0.09396568  0.39936443     0.41100
H54         H  0.40106488  0.10684628  0.07029069     0.39000
H55         H  0.47621983  0.04307165  0.14176026     0.42200
H56         H  0.04487277  0.47562360  0.14711403     0.36900
H57         H  0.10320960  0.38911734  0.09264469     0.43100
H58         H  0.11321072  0.38089080  0.43199575     0.39500
H59         H  0.40747228  0.10341949  0.02214433     0.44400
H60         H  0.06668349  0.43472841  0.14855566     0.43100
H61         H  0.12118343  0.40007070  0.47018723     0.43300
H62         H  0.44201226  0.04011541  0.34757057     0.43600
C63         C  0.00515452  0.27016100  0.16325130     0.80300
N64         N  0.00367663  0.27067757  0.20548085    -0.78000
C65         C  0.00234631  0.24288608  0.22654068     0.82700
N66         N  0.00275068  0.21438134  0.20514361    -0.78000
C67         C  0.00456089  0.21345646  0.16291944     0.82800
N68         N  0.00570504  0.24148400  0.14218608    -0.79700
C69         C  0.00216485  0.27074052  0.33634839     0.80300
N70         N  0.00060511  0.24266674  0.35652912    -0.78000
C71         C  0.99934612  0.21489437  0.33512007     0.82700
N72         N  0.99946822  0.21543175  0.29289787    -0.78000
C73         C  0.00102872  0.24329562  0.27222252     0.82800
N74         N  0.00241652  0.27089214  0.29403369    -0.79700
C75         C  0.27878677  0.49869726  0.16349708     0.80300
N76         N  0.27862462  0.49869158  0.20566887    -0.78000
C77         C  0.25063758  0.49795824  0.22695388     0.82700
N78         N  0.22252808  0.49728149  0.20582075    -0.78000
C79         C  0.22225531  0.49770256  0.16353626     0.82800
N80         N  0.25055555  0.49815939  0.14251352    -0.79700
C81         C  0.28173617  0.49516579  0.33508235     0.80300
N82         N  0.28006317  0.49715706  0.29298285    -0.78000
C83         C  0.25144216  0.49702691  0.27253472     0.82700
N84         N  0.22425149  0.49500955  0.29441607    -0.78000
C85         C  0.22549899  0.49323308  0.33663297     0.82800
N86         N  0.25439392  0.49319956  0.35677126    -0.79700
C87         C  0.49313814  0.15914079  0.33627501    -0.21300
C88         C  0.99890182  0.18389108  0.35752866    -0.09300
C89         C  0.01003827  0.17737970  0.39922465     0.29500
C90         C  0.01063466  0.14744122  0.41948223    -0.21300
C91         C  0.99933231  0.12380184  0.39922887    -0.09300
C92         C  0.49040098  0.13075507  0.35721071     0.29600
F93         F  0.47791944  0.10964208  0.33631408    -0.19800
H94         H  0.48475892  0.16372416  0.30412377     0.17900
H95         H  0.01952140  0.14302436  0.45147042     0.17900
F96         F  0.02089898  0.19954223  0.42051431    -0.19800
C97         C  0.52247793  0.35135736  0.36667964    -0.21300
C98         C  0.00666042  0.35724755  0.40760862    -0.09300
C99         C  0.99308237  0.33424062  0.42534411     0.29500
C100        C  0.99205663  0.30604492  0.40210724    -0.21300
C101        C  0.00392401  0.30053168  0.36058879    -0.09300
C102        C  0.52325359  0.32242450  0.34345805     0.29600
F103        F  0.53806370  0.31693799  0.30498379    -0.19800
H104        H  0.53292707  0.36896950  0.35280843     0.17900
H105        H  0.98149014  0.28875514  0.41654788     0.17900
F106        F  0.98123770  0.33862479  0.46524168    -0.19800
C107        C  0.51230217  0.18038901  0.09582617    -0.21300
C108        C  0.00469116  0.18258185  0.13947717    -0.09300
C109        C  0.98883970  0.16106267  0.15596205     0.29500
C110        C  0.98754219  0.13316335  0.13253937    -0.21300
C111        C  0.00270049  0.12551930  0.09265063    -0.09300
C112        C  0.51116694  0.15219966  0.07276898     0.29600
F113        F  0.51936354  0.14967951  0.03166196    -0.19800
H114        H  0.52016235  0.19923635  0.08023629     0.17900
H115        H  0.97497727  0.11718349  0.14596967     0.17900
F116        F  0.97377120  0.16740113  0.19430446    -0.19800
C117        C  0.48622688  0.34307432  0.08261274    -0.21300
C118        C  0.00587632  0.36056644  0.09888017    -0.09300
C119        C  0.02388104  0.34972482  0.13691500     0.29500
C120        C  0.02343184  0.32032299  0.15763530    -0.21300
C121        C  0.00587321  0.30069053  0.14049115    -0.09300
C122        C  0.48672703  0.31315026  0.10299193     0.29600
F123        F  0.46817657  0.29561227  0.08656544    -0.19800
H124        H  0.47138995  0.35106042  0.05397872     0.17900
H125        H  0.03710820  0.31269958  0.18706304     0.17900
F126        F  0.04139737  0.36777638  0.15461503    -0.19800
C127        C  0.32593243  0.47152662  0.39177911    -0.21300
C128        C  0.31376302  0.49338230  0.35693968    -0.09300
C129        C  0.33275431  0.51279194  0.34302844     0.29500
C130        C  0.36298630  0.51075940  0.36420789    -0.21300
C131        C  0.37505890  0.48927214  0.39959969    -0.09300
C132        C  0.35637827  0.46914818  0.41276737     0.29600
F133        F  0.36016149  0.95791298  0.45760356    -0.19800
H134        H  0.31195286  0.45595508  0.40262069     0.17900
H135        H  0.37668894  0.52648535  0.35305132     0.17900
F136        F  0.32140286  0.53477094  0.30992758    -0.19800
C137        C  0.14610344  0.47416470  0.36624820    -0.21300
C138        C  0.13894756  0.48810485  0.40676423    -0.09300
C139        C  0.15856196  0.00651871  0.42137388     0.29500
C140        C  0.18917398  0.50431997  0.40142270    -0.21300
C141        C  0.19582852  0.49111702  0.36055821    -0.09300
C142        C  0.17399308  0.47591902  0.34315331     0.29600
F143        F  0.17983990  0.46223660  0.30406875    -0.20600
H144        H  0.12959907  0.46250077  0.35203649     0.17900
H145        H  0.20477671  0.01718133  0.41316343     0.17900
F146        F  0.15164371  0.02226017  0.45937008    -0.19800
C147        C  0.32111796  0.47814651  0.10430125    -0.21300
C148        C  0.30991015  0.49821698  0.14080498    -0.09300
C149        C  0.32919494  0.51697246  0.15590492     0.29500
C150        C  0.35890684  0.51599935  0.13439905    -0.21300
C151        C  0.37038735  0.49579679  0.09786371    -0.09300
C152        C  0.35131212  0.47647227  0.08326809     0.29600
F153        F  0.35902354  0.95921360  0.04295405    -0.19800
H154        H  0.30683140  0.46316746  0.09244785     0.17900
H155        H  0.37305256  0.53099312  0.14656763     0.17900
F156        F  0.31884226  0.53694937  0.19092412    -0.19800
C157        C  0.14910782  0.01731988  0.08830370    -0.21300
C158        C  0.13363902  0.49435403  0.09711339    -0.09300
C159        C  0.14509528  0.47567008  0.13469312     0.29500
C160        C  0.17356052  0.47741231  0.15636393    -0.21300
C161        C  0.19176089  0.49688645  0.14063196    -0.09300
C162        C  0.18074504  0.51512922  0.10293160     0.29600
F163        F  0.18971226  0.04366770  0.10100975    -0.19800
H164        H  0.13680586  0.03712090  0.06475834     0.17900
H165        H  0.18182115  0.46293389  0.18519159     0.17900
F166        F  0.12882031  0.45585816  0.15085801    -0.19800
O167        O  0.09337828  0.46764103  0.58447485    -0.75300
O168        O  0.08960501  0.01830434  0.54465635    -0.54200
C169        C  0.10562264  0.49046159  0.57393211     0.78500
O170        O  0.02827274  0.39991651  0.92069881    -0.59900
O171        O  0.48046555  0.40486837  0.95803919    -0.52900
C172        C  0.50440464  0.39057076  0.93022741     0.70500
O173        O  0.09614125  0.46235096  0.92042502    -0.74400
O174        O  0.09213001  0.01310288  0.95491827    -0.55000
C175        C  0.10657598  0.48709141  0.92849006     0.76500
O176        O  0.02599770  0.40591404  0.58969891    -0.59600
O177        O  0.47926881  0.40771102  0.54926781    -0.52700
C178        C  0.50158121  0.39522244  0.57900653     0.73100
Zr179      Zr  0.04467224  0.45167931  0.56673253     2.54700
O180        O  0.09734688  0.39764286  0.57621477    -0.80100
O181        O  0.03632779  0.46104753  0.64151545    -0.93500
Zr182      Zr  0.04819561  0.44580065  0.94094581     2.64700
O183        O  0.09972712  0.39050180  0.94951938    -0.98500
O184        O  0.05077214  0.44266683  0.86525548    -0.80600
O185        O  0.06738049  0.46611679  0.50503392    -0.83900
O186        O  0.03028648  0.42833148  0.50545133    -2.18600
O187        O  0.41236177  0.01877628  0.58119361    -0.67300
O188        O  0.41425359  0.47331455  0.54454705    -0.51900
C189        C  0.40227779  0.99381792  0.57289458     0.71500
O190        O  0.47726048  0.08202180  0.91388912    -0.60200
O191        O  0.02566340  0.07768206  0.95103777    -0.52200
C192        C  0.00141594  0.09138367  0.92343434     0.73300
O193        O  0.41697763  0.01281639  0.91173041    -0.71600
O194        O  0.41545457  0.47021445  0.95706522    -0.50300
C195        C  0.40517154  0.98983764  0.92334773     0.74600
O196        O  0.47553380  0.08571446  0.57999636    -0.66900
O197        O  0.02306818  0.08349863  0.54248027    -0.54100
C198        C  0.99838632  0.09843138  0.56935800     0.73000
Zr199      Zr  0.45606953  0.04011105  0.55681630     2.77500
O200        O  0.40235399  0.09202518  0.54225369    -0.97700
O201        O  0.44667106  0.04929702  0.63144471    -0.78500
Zr202      Zr  0.46193749  0.03336199  0.93368390     2.70100
O203        O  0.40644406  0.08506372  0.92831464    -0.79800
O204        O  0.47017019  0.02889897  0.85845539    -0.98800
Zr205      Zr  0.04089017  0.02834037  0.99888756     2.21500
Zr206      Zr  0.46658541  0.45599151  0.50115665     2.11100
O207        O  0.44030733  0.01859147  0.99587466    -2.47500
O208        O  0.47747173  0.05613429  0.99486031    -0.79500
O209        O  0.48101229  0.47835141  0.56364892    -0.71700
O210        O  0.02492140  0.00695088  0.93665731    -2.32700
O211        O  0.01923428  0.01545612  0.56230567    -2.28900
O212        O  0.48488224  0.47277146  0.93808163    -0.73500
H213        H  0.03819572  0.40343898  0.00448473     0.78500
H214        H  0.03364811  0.01445040  0.91230527     0.79600
H215        H  0.41425146  0.02620690  0.49472831     0.81800
H216        H  0.02661939  0.02503955  0.58615081     0.79400
H217        H  0.05215522  0.46494724  0.85635987     0.42400
H218        H  0.46232148  0.01028305  0.84965525     0.41400
H219        H  0.40658029  0.09416682  0.89989827     0.41100
H220        H  0.38375591  0.08289643  0.53901141     0.39000
H221        H  0.42957965  0.07413059  0.63447956     0.42200
H222        H  0.04780214  0.47717416  0.64873281     0.36900
H223        H  0.10185960  0.38614990  0.54851637     0.43100
H224        H  0.10418969  0.37964500  0.92146316     0.39500
H225        H  0.39651774  0.10533689  0.56879968     0.44400
H226        H  0.05178621  0.43815099  0.65388765     0.43100
H227        H  0.11965194  0.39747069  0.95445771     0.43300
H228        H  0.45191467  0.05104069  0.84748113     0.43600
C229        C  0.00174458  0.27283212  0.66661808     0.80300
N230        N  0.00052758  0.27246340  0.70880549    -0.78000
C231        C  0.99906242  0.24434005  0.72901681     0.82700
N232        N  0.99895165  0.21642027  0.70681936    -0.78000
C233        C  0.00057448  0.21643681  0.66459828     0.82800
N234        N  0.00200610  0.24466432  0.64473326    -0.79700
C235        C  0.99776922  0.27201463  0.83872930     0.80300
N236        N  0.99703662  0.24358798  0.85894567    -0.78000
C237        C  0.99657758  0.21551167  0.83741000     0.82700
N238        N  0.99674044  0.21601186  0.79515152    -0.78000
C239        C  0.99762128  0.24423411  0.77461072     0.82800
N240        N  0.99815755  0.27207346  0.79650150    -0.79700
C241        C  0.28129712  0.49550185  0.66491643     0.80300
N242        N  0.28136192  0.49400580  0.70714229    -0.78000
C243        C  0.25412844  0.49079031  0.72784501     0.82700
N244        N  0.22672941  0.48906866  0.70611412    -0.78000
C245        C  0.22634329  0.49090075  0.66392593     0.82800
N246        N  0.25365480  0.49399281  0.64365907    -0.79700
C247        C  0.28380063  0.48751716  0.83676588     0.80300
N248        N  0.28284975  0.48902099  0.79461527    -0.78000
C249        C  0.25459626  0.48887712  0.77346046     0.82700
N250        N  0.22690994  0.48723866  0.79473702    -0.78000
C251        C  0.22749908  0.48575853  0.83701444     0.82800
N252        N  0.25600327  0.48593148  0.85776795    -0.79700
C253        C  0.48403232  0.16411706  0.84100854    -0.21300
C254        C  0.99730510  0.18411581  0.85972508    -0.09300
C255        C  0.01342417  0.17504952  0.89898463     0.29500
C256        C  0.01505052  0.14463956  0.91910936    -0.21300
C257        C  0.00007376  0.12302283  0.90103512    -0.09300
C258        C  0.48329600  0.13497360  0.86211161     0.29600
F259        F  0.46697688  0.11602695  0.84378931    -0.19800
H260        H  0.47146326  0.17084258  0.81084973     0.17900
H261        H  0.02775392  0.13823051  0.94920486     0.17900
F262        F  0.02847199  0.19500838  0.91760056    -0.19800
C263        C  0.51819450  0.35298182  0.86659103    -0.21300
C264        C  0.00361672  0.35816288  0.90903905    -0.09300
C265        C  0.99185802  0.33424656  0.92801306     0.29500
C266        C  0.99014445  0.30624653  0.90502684    -0.21300
C267        C  0.99934701  0.30201882  0.86258913    -0.09300
C268        C  0.51770659  0.32462511  0.84342810     0.29600
F269        F  0.53089614  0.31969827  0.80414399    -0.19800
H270        H  0.52874979  0.37032967  0.85226969     0.17900
H271        H  0.98124725  0.28806114  0.92042922     0.17900
F272        F  0.98249568  0.33756586  0.96879431    -0.19800
C273        C  0.50333835  0.18412291  0.59639073    -0.21300
C274        C  0.99986877  0.18651734  0.64020286    -0.09300
C275        C  0.97901262  0.16873622  0.65295290     0.29500
C276        C  0.97806497  0.14080844  0.62922184    -0.21300
C277        C  0.99831691  0.12959846  0.59260705    -0.09300
C278        C  0.50238188  0.15579756  0.57347971     0.29600
F279        F  0.50205292  0.15733429  0.53132286    -0.19800
H280        H  0.50421153  0.20638821  0.57960981     0.17900
H281        H  0.96176788  0.12759802  0.64001001     0.17900
F282        F  0.95884692  0.17890218  0.68783667    -0.19800
C283        C  0.48787064  0.34182278  0.58166872    -0.21300
C284        C  0.00214598  0.36353409  0.60257290    -0.09300
C285        C  0.01879564  0.35367656  0.64157809     0.29500
C286        C  0.01828929  0.32432116  0.66241946    -0.21300
C287        C  0.00175914  0.30398024  0.64461728    -0.09300
C288        C  0.48860404  0.31157436  0.60151858     0.29600
F289        F  0.47483508  0.29110627  0.58152054    -0.19800
H290        H  0.47681041  0.34770024  0.55069262     0.17900
H291        H  0.03127906  0.31719001  0.69230433     0.17900
F292        F  0.03528896  0.37244787  0.65991187    -0.19800
C293        C  0.32022419  0.47728287  0.90125648    -0.21300
C294        C  0.31441172  0.48845797  0.85965957    -0.09300
C295        C  0.33764728  0.50121102  0.84071876     0.29500
C296        C  0.36603583  0.50249413  0.86295002    -0.21300
C297        C  0.37207420  0.49095466  0.90434069    -0.09300
C298        C  0.34867562  0.47855914  0.92346909     0.29600
F299        F  0.35996354  0.95803849  0.95623389    -0.19800
H300        H  0.30268601  0.46755732  0.91674665     0.17900
H301        H  0.38352504  0.51232901  0.84753483     0.17900
F302        F  0.33264630  0.51324093  0.80100933    -0.19800
C303        C  0.14583228  0.47065406  0.86601880    -0.21300
C304        C  0.13804692  0.48617062  0.90577745    -0.09300
C305        C  0.15820526  0.00560859  0.92067652     0.29500
C306        C  0.18962809  0.50012316  0.90065543    -0.21300
C307        C  0.19696513  0.48527806  0.86054367    -0.09300
C308        C  0.17484108  0.47034255  0.84346383     0.29600
F309        F  0.18159046  0.45478988  0.80536004    -0.20600
H310        H  0.12911074  0.45912893  0.85205125     0.17900
H311        H  0.20325330  0.01788217  0.91168144     0.17900
F312        F  0.15078722  0.02224900  0.95815040    -0.19800
C313        C  0.31694002  0.48567212  0.59999882    -0.21300
C314        C  0.31154688  0.49704395  0.64168143    -0.09300
C315        C  0.33531927  0.50930109  0.66021449     0.29500
C316        C  0.36407180  0.50952397  0.63749343    -0.21300
C317        C  0.36984237  0.49730619  0.59613960    -0.09300
C318        C  0.34575662  0.48564787  0.57746137     0.29600
F319        F  0.36127112  0.95513501  0.54644265    -0.19800
H320        H  0.29901546  0.47628366  0.58476920     0.17900
H321        H  0.38213925  0.51887058  0.65247969     0.17900
F322        F  0.33058825  0.52159797  0.69992806    -0.19800
C323        C  0.15095992  0.01757395  0.58329733    -0.21300
C324        C  0.13758335  0.48927936  0.59610803    -0.09300
C325        C  0.15091592  0.46744174  0.63120458     0.29500
C326        C  0.17973195  0.46817335  0.65311830    -0.21300
C327        C  0.19640933  0.48986177  0.64009407    -0.09300
C328        C  0.18415505  0.51062738  0.60430370     0.29600
F329        F  0.19427591  0.04100764  0.59285120    -0.19800
H330        H  0.14110344  0.03481806  0.55677529     0.17900
H331        H  0.18920016  0.45153711  0.68022402     0.17900
F332        F  0.13600118  0.44563505  0.64495232    -0.19800
O333        O  0.09269021  0.96845534  0.08513515    -0.75300
O334        O  0.08908207  0.51679675  0.04558947    -0.54200
C335        C  0.10453408  0.99158475  0.07449427     0.78500
O336        O  0.03022699  0.90055435  0.41998208    -0.59900
O337        O  0.48390176  0.90313465  0.45851884    -0.52900
C338        C  0.50747681  0.88932139  0.43028307     0.70500
O339        O  0.09533440  0.96631330  0.41919267    -0.74400
O340        O  0.09294048  0.51281939  0.45617824    -0.55000
C341        C  0.10556310  0.99119959  0.42755520     0.76500
O342        O  0.02685520  0.90444639  0.08705303    -0.59600
O343        O  0.48094229  0.90732897  0.04793776    -0.52700
C344        C  0.50386582  0.89437097  0.07699131     0.73100
Zr345      Zr  0.04580315  0.95038064  0.06474733     2.54700
O346        O  0.10075161  0.89791452  0.06834106    -0.80100
O347        O  0.04177944  0.95386795  0.14032144    -0.93500
Zr348      Zr  0.04997989  0.94642597  0.44210871     2.64700
O349        O  0.10457664  0.89487970  0.45389400    -0.98500
O350        O  0.05512847  0.93957431  0.36683136    -0.80600
O351        O  0.06749663  0.96565489  0.00284508    -0.83900
O352        O  0.03024146  0.92784205  0.00360509    -2.18600
O353        O  0.41159381  0.52079653  0.08285889    -0.67300
O354        O  0.41667604  0.97033119  0.04466812    -0.51900
C355        C  0.40162819  0.49564290  0.07507832     0.71500
O356        O  0.48130620  0.57942768  0.41349194    -0.60200
O357        O  0.02746809  0.57793493  0.45245694    -0.52200
C358        C  0.00346411  0.59152982  0.42462620     0.73300
O359        O  0.41784886  0.51263881  0.41281212    -0.71600
O360        O  0.41963686  0.96543990  0.45326231    -0.50300
C361        C  0.40593868  0.48942534  0.42312309     0.74600
O362        O  0.47634826  0.58641293  0.08042767    -0.66900
O363        O  0.02481290  0.58134494  0.04282943    -0.54100
C364        C  0.00037366  0.59626504  0.06999080     0.73000
Zr365      Zr  0.45752778  0.53977209  0.06002747     2.77500
O366        O  0.40411018  0.59353274  0.05236756    -0.97700
O367        O  0.45371449  0.54416164  0.13557987    -0.78500
Zr368      Zr  0.46359589  0.53232552  0.43430399     2.70100
O369        O  0.40984859  0.58493961  0.42297614    -0.79800
O370        O  0.47236784  0.52378510  0.35956285    -0.98800
Zr371      Zr  0.04121677  0.52883434  0.50008831     2.21500
Zr372      Zr  0.46748806  0.95590429  0.99996675     2.11100
O373        O  0.44031331  0.51878671  0.49606995    -2.47500
O374        O  0.47787149  0.55618311  0.49545579    -0.79500
O375        O  0.48309229  0.97718039  0.06230513    -0.71700
O376        O  0.02625742  0.50654222  0.43775829    -2.32700
O377        O  0.02026350  0.51330105  0.06207487    -2.28900
O378        O  0.48739360  0.97091710  0.43737808    -0.73500
H379        H  0.03963823  0.90400173  0.50603087     0.78500
H380        H  0.03544515  0.51372405  0.41353921     0.79600
H381        H  0.41385125  0.52793496  0.99873007     0.81800
H382        H  0.02812203  0.52247804  0.08587764     0.79400
H383        H  0.05313138  0.96277481  0.35638943     0.42400
H384        H  0.47113944  0.50077336  0.35397709     0.41400
H385        H  0.39276645  0.58320616  0.44348438     0.41100
H386        H  0.38802773  0.58652837  0.03539302     0.39000
H387        H  0.47709131  0.54279470  0.14463193     0.42200
H388        H  0.04384759  0.97621306  0.14758343     0.36900
H389        H  0.09893148  0.88236335  0.04585157     0.43100
H390        H  0.09727647  0.87495042  0.45629975     0.39500
H391        H  0.39330255  0.59802338  0.08044253     0.44400
H392        H  0.06419434  0.93514640  0.14998657     0.43100
H393        H  0.11729616  0.89090098  0.42699430     0.43300
H394        H  0.45041820  0.54141454  0.34734190     0.43600
C395        C  0.99941734  0.77307408  0.16464938     0.80300
N396        N  0.99817728  0.77311984  0.20689353    -0.78000
C397        C  0.99704928  0.74507677  0.22767788     0.82700
N398        N  0.99726672  0.71677894  0.20593922    -0.78000
C399        C  0.99902269  0.71636144  0.16371275     0.82800
N400        N  0.00015167  0.74447499  0.14325614    -0.79700
C401        C  0.99857478  0.77260025  0.33723073     0.80300
N402        N  0.99900320  0.74379105  0.35780209    -0.78000
C403        C  0.99846569  0.71550276  0.33668540     0.82700
N404        N  0.99724478  0.71633707  0.29441014    -0.78000
C405        C  0.99678296  0.74495033  0.27344225     0.82800
N406        N  0.99754293  0.77291407  0.29497374    -0.79700
C407        C  0.28210329  0.99398810  0.16388450     0.80300
N408        N  0.28245578  0.99234681  0.20605590    -0.78000
C409        C  0.25459522  0.99092321  0.22710589     0.82700
N410        N  0.22623405  0.99110831  0.20581722    -0.78000
C411        C  0.22541015  0.99323189  0.16367738     0.82800
N412        N  0.25341241  0.99454185  0.14280335    -0.79700
C413        C  0.28477115  0.98823011  0.33548895     0.80300
N414        N  0.28385178  0.98889233  0.29336338    -0.78000
C415        C  0.25517479  0.98949454  0.27264400     0.82700
N416        N  0.22706313  0.98936124  0.29429707    -0.78000
C417        C  0.22749289  0.98881260  0.33658767     0.82800
N418        N  0.25644046  0.98831329  0.35706079    -0.79700
C419        C  0.48766773  0.66132258  0.34034529    -0.21300
C420        C  0.00006620  0.68368063  0.35937553    -0.09300
C421        C  0.01290509  0.67681790  0.40046150     0.29500
C422        C  0.01455447  0.64651449  0.42112859    -0.21300
C423        C  0.00280037  0.62279360  0.40178004    -0.09300
C424        C  0.48891949  0.63109551  0.36082555     0.29600
F425        F  0.47576542  0.60994018  0.34120065    -0.19800
H426        H  0.47585211  0.66717130  0.30972863     0.17900
H427        H  0.02447763  0.64193255  0.45268459     0.17900
F428        F  0.02434738  0.69904651  0.42067343    -0.19800
C429        C  0.51867399  0.85278634  0.36608020    -0.21300
C430        C  0.00477394  0.85927188  0.40689431    -0.09300
C431        C  0.99289143  0.83546439  0.42594507     0.29500
C432        C  0.99095081  0.80745677  0.40313736    -0.21300
C433        C  0.00027106  0.80284248  0.36075973    -0.09300
C434        C  0.51706444  0.82477318  0.34325308     0.29600
F435        F  0.52867559  0.82026980  0.30328961    -0.19800
H436        H  0.52831704  0.87052026  0.35092806     0.17900
H437        H  0.98192573  0.78944113  0.41870868     0.17900
F438        F  0.98380663  0.83879392  0.46682242    -0.19800
C439        C  0.52678670  0.67016615  0.11117119    -0.21300
C440        C  0.99961882  0.68569268  0.14003187    -0.09300
C441        C  0.97340339  0.67291910  0.14630049     0.29500
C442        C  0.97361258  0.64430692  0.12299693    -0.21300
C443        C  0.00028809  0.62746411  0.09330748    -0.09300
C444        C  0.52735995  0.64103512  0.08850025     0.29600
F445        F  0.55402125  0.62549352  0.06089505    -0.19800
H446        H  0.54741779  0.67955022  0.10610282     0.17900
H447        H  0.95276056  0.63532504  0.12843064     0.17900
F448        F  0.94698903  0.68879618  0.17413181    -0.19800
C449        C  0.48602466  0.84361175  0.08280506    -0.21300
C450        C  0.00243259  0.86241505  0.09979629    -0.09300
C451        C  0.01769526  0.85325463  0.13950470     0.29500
C452        C  0.01633771  0.82433822  0.16049878    -0.21300
C453        C  0.00027554  0.80374371  0.14217842    -0.09300
C454        C  0.48552663  0.81424625  0.10358582     0.29600
F455        F  0.46790050  0.79619914  0.08611238    -0.19800
H456        H  0.47284269  0.85064035  0.05303266     0.17900
H457        H  0.02822786  0.81781025  0.19102352     0.17900
F458        F  0.03335362  0.87251983  0.15848379    -0.19800
C459        C  0.32399418  0.97303843  0.39765942    -0.21300
C460        C  0.31653248  0.98709856  0.35740653    -0.09300
C461        C  0.33995145  0.99952256  0.33825742     0.29500
C462        C  0.36949673  0.99882779  0.35963489    -0.21300
C463        C  0.37663993  0.98531455  0.40015539    -0.09300
C464        C  0.35398590  0.97167775  0.41871440     0.29600
F465        F  0.36697732  0.44756273  0.44626382    -0.19800
H466        H  0.30669751  0.96283350  0.41282272     0.17900
H467        H  0.38674786  0.00909523  0.34445164     0.17900
F468        F  0.33393766  0.01328170  0.29933051    -0.19800
C469        C  0.14520038  0.97472836  0.36523670    -0.21300
C470        C  0.13671445  0.99106419  0.40450560    -0.09300
C471        C  0.16091339  0.50311264  0.42425726     0.29500
C472        C  0.18834559  0.00519779  0.39947349    -0.21300
C473        C  0.19651938  0.98918228  0.36003103    -0.09300
C474        C  0.17458195  0.97395135  0.34308486     0.29600
F475        F  0.18196183  0.95751660  0.30549907    -0.20600
H476        H  0.12888660  0.96266443  0.35142603     0.17900
H477        H  0.20559390  0.51610451  0.41557859     0.17900
F478        F  0.15544902  0.51617044  0.46363994    -0.19800
C479        C  0.32201049  0.97695987  0.10222723    -0.21300
C480        C  0.31310341  0.99394909  0.14098872    -0.09300
C481        C  0.33419035  0.01037062  0.15742625     0.29500
C482        C  0.36291577  0.01063384  0.13473646    -0.21300
C483        C  0.37181051  0.99375186  0.09580624    -0.09300
C484        C  0.35127689  0.97638002  0.08004030     0.29600
F485        F  0.36147046  0.45620282  0.04849274    -0.19800
H486        H  0.30650747  0.96363843  0.08927040     0.17900
H487        H  0.37844498  0.02383263  0.14791538     0.17900
F488        F  0.32664168  0.02689618  0.19494133    -0.19800
C489        C  0.15174679  0.51413838  0.08170371    -0.21300
C490        C  0.13580500  0.99171308  0.09737437    -0.09300
C491        C  0.15258541  0.96668006  0.12876107     0.29500
C492        C  0.18147831  0.96767088  0.15032393    -0.21300
C493        C  0.19469676  0.99302241  0.14080479    -0.09300
C494        C  0.17829094  0.01795350  0.10969815     0.29600
F495        F  0.19749343  0.53455391  0.08697757    -0.19800
H496        H  0.14369122  0.52868016  0.05290587     0.17900
H497        H  0.19392789  0.94820638  0.17420863     0.17900
F498        F  0.14136788  0.94107317  0.13882081    -0.19800
O499        O  0.09204475  0.97166458  0.58380180    -0.75300
O500        O  0.09186131  0.51422885  0.54587323    -0.54200
C501        C  0.10353684  0.99503545  0.57316707     0.78500
O502        O  0.02924583  0.90034192  0.91852853    -0.59900
O503        O  0.48210342  0.90441193  0.95649812    -0.52900
C504        C  0.50591207  0.89030832  0.92858877     0.70500
O505        O  0.09552360  0.96455068  0.91841847    -0.74400
O506        O  0.09130081  0.51269094  0.95418478    -0.55000
C507        C  0.10638107  0.98883560  0.92752308     0.76500
O508        O  0.02818600  0.90618739  0.58950851    -0.59600
O509        O  0.48141423  0.90688329  0.54846227    -0.52700
C510        C  0.50405905  0.89440047  0.57784132     0.73100
Zr511      Zr  0.04543890  0.95282690  0.56531977     2.54700
O512        O  0.10002034  0.89984826  0.56639015    -0.80100
O513        O  0.04261697  0.95602359  0.64100166    -0.93500
Zr514      Zr  0.05047669  0.94455055  0.94173990     2.64700
O515        O  0.10368746  0.89233235  0.95662733    -0.98500
O516        O  0.06079793  0.93310591  0.86755350    -0.80600
O517        O  0.06631959  0.96849394  0.50309304    -0.83900
O518        O  0.03055839  0.92939779  0.50450085    -2.18600
O519        O  0.41232815  0.52058869  0.58273861    -0.67300
O520        O  0.41687535  0.96949625  0.54563581    -0.51900
C521        C  0.40076357  0.49703441  0.57287876     0.71500
O522        O  0.47618351  0.58247909  0.91428004    -0.60200
O523        O  0.02451856  0.57895298  0.95157236    -0.52200
C524        C  0.00051181  0.59251379  0.92375241     0.73300
O525        O  0.41479755  0.51459608  0.91483810    -0.71600
O526        O  0.41811456  0.96794933  0.95333734    -0.50300
C527        C  0.40269464  0.49199787  0.92696525     0.74600
O528        O  0.47557747  0.58689443  0.57843631    -0.66900
O529        O  0.02490453  0.58147190  0.54315454    -0.54100
C530        C  0.99896176  0.59758246  0.56811597     0.73000
Zr531      Zr  0.45641029  0.54075395  0.55731390     2.77500
O532        O  0.40278720  0.59254740  0.54221197    -0.97700
O533        O  0.44721106  0.55239386  0.63164936    -0.78500
Zr534      Zr  0.45956450  0.53528677  0.93675505     2.70100
O535        O  0.40387904  0.58710189  0.93716785    -0.79800
O536        O  0.46340849  0.53373597  0.86112987    -0.98800
Zr537      Zr  0.03964861  0.52949465  0.99877453     2.21500
Zr538      Zr  0.46759013  0.95555276  0.50078995     2.11100
O539        O  0.43928256  0.51941548  0.99915493    -2.47500
O540        O  0.47658711  0.55714136  0.99761652    -0.79500
O541        O  0.48253006  0.97769314  0.56271813    -0.71700
O542        O  0.02301280  0.50834735  0.93686365    -2.32700
O543        O  0.01992883  0.51411671  0.56308167    -2.28900
O544        O  0.48791420  0.97094668  0.93669644    -0.73500
H545        H  0.03888061  0.90246718  0.00483477     0.78500
H546        H  0.03175344  0.51582297  0.91249308     0.79600
H547        H  0.41490876  0.52744379  0.49437267     0.81800
H548        H  0.02722328  0.52370225  0.58698760     0.79400
H549        H  0.04353392  0.95459846  0.85409791     0.42400
H550        H  0.47324621  0.50830903  0.85394069     0.41400
H551        H  0.40933055  0.60568864  0.95104656     0.41100
H552        H  0.38464752  0.58319679  0.53658076     0.39000
H553        H  0.46371444  0.53040725  0.64496463     0.42200
H554        H  0.04221532  0.97948243  0.64797768     0.36900
H555        H  0.10244724  0.89172531  0.59560688     0.43100
H556        H  0.11245158  0.88189708  0.92896349     0.39500
H557        H  0.39575876  0.60484825  0.56930997     0.44400
H558        H  0.06612197  0.93904351  0.65030316     0.43100
H559        H  0.12101888  0.90169616  0.96609049     0.43300
H560        H  0.43862347  0.54288623  0.85148133     0.43600
C561        C  0.00256107  0.77257583  0.66507426     0.80300
N562        N  0.00281698  0.77131176  0.70721168    -0.78000
C563        C  0.00149230  0.74308328  0.72722980     0.82700
N564        N  0.00006688  0.71578008  0.70483155    -0.78000
C565        C  0.00014359  0.71660667  0.66252060     0.82800
N566        N  0.00141655  0.74507060  0.64289494    -0.79700
C567        C  0.00158945  0.77065515  0.83674212     0.80300
N568        N  0.00071492  0.74240012  0.85719870    -0.78000
C569        C  0.00025586  0.71419122  0.83592617     0.82700
N570        N  0.00037352  0.71448518  0.79364548    -0.78000
C571        C  0.00120430  0.74261188  0.77286279     0.82800
N572        N  0.00184456  0.77053616  0.79452143    -0.79700
C573        C  0.28078869  0.99617499  0.66368688     0.80300
N574        N  0.28078739  0.99510269  0.70588846    -0.78000
C575        C  0.25253541  0.99445622  0.72680462     0.82700
N576        N  0.22410743  0.99503250  0.70531159    -0.78000
C577        C  0.22369405  0.99666645  0.66311000     0.82800
N578        N  0.25216194  0.99696677  0.64242236    -0.79700
C579        C  0.28267836  0.99083245  0.83550173     0.80300
N580        N  0.28151084  0.99254552  0.79337432    -0.78000
C581        C  0.25312307  0.99259508  0.77236040     0.82700
N582        N  0.22554813  0.99087794  0.79370739    -0.78000
C583        C  0.22631738  0.98923488  0.83593556     0.82800
N584        N  0.25493875  0.98923943  0.85667125    -0.79700
C585        C  0.48592151  0.66261736  0.83963719    -0.21300
C586        C  0.00011992  0.68323746  0.85857661    -0.09300
C587        C  0.01342526  0.67574455  0.89934298     0.29500
C588        C  0.01369643  0.64606700  0.92003281    -0.21300
C589        C  0.00011786  0.62364046  0.90099790    -0.09300
C590        C  0.48481085  0.63362608  0.86080321     0.29600
F591        F  0.46995332  0.61371366  0.84162249    -0.19800
H592        H  0.47514954  0.66821584  0.80849272     0.17900
H593        H  0.02421910  0.64085645  0.95131242     0.17900
F594        F  0.02683499  0.69662561  0.91909251    -0.19800
C595        C  0.51800356  0.85335326  0.86449117    -0.21300
C596        C  0.00471202  0.85859013  0.90590601    -0.09300
C597        C  0.99309638  0.83460577  0.92493548     0.29500
C598        C  0.99221771  0.80607967  0.90231783    -0.21300
C599        C  0.00269326  0.80100853  0.86031463    -0.09300
C600        C  0.51741230  0.82480202  0.84181021     0.29600
F601        F  0.53068588  0.81946744  0.80256315    -0.19800
H602        H  0.52824328  0.87078298  0.84974500     0.17900
H603        H  0.98316754  0.78801573  0.91773312     0.17900
F604        F  0.98347200  0.83815337  0.96564138    -0.19800
C605        C  0.50622554  0.68372025  0.59574414    -0.21300
C606        C  0.99897367  0.68683241  0.63784779    -0.09300
C607        C  0.98038878  0.66718174  0.65227012     0.29500
C608        C  0.97979477  0.63894310  0.62881322    -0.21300
C609        C  0.99824481  0.62916285  0.59086487    -0.09300
C610        C  0.50590284  0.65519820  0.57266541     0.29600
F611        F  0.51009842  0.65484861  0.53076797    -0.19800
H612        H  0.51015460  0.70468925  0.57941015     0.17900
H613        H  0.96542804  0.62418580  0.64095394     0.17900
F614        F  0.96231082  0.67554404  0.68875657    -0.19800
C615        C  0.48834615  0.84219331  0.58210237    -0.21300
C616        C  0.00446404  0.86339974  0.60239921    -0.09300
C617        C  0.02087136  0.85318719  0.64143410     0.29500
C618        C  0.01984140  0.82382665  0.66189367    -0.21300
C619        C  0.00299531  0.80386853  0.64363006    -0.09300
C620        C  0.48825398  0.81247109  0.60244059     0.29600
F621        F  0.47253173  0.79320175  0.58358047    -0.19800
H622        H  0.47632913  0.84854882  0.55164536     0.17900
H623        H  0.03264441  0.81641530  0.69184603     0.17900
F624        F  0.03746445  0.87169193  0.66017284    -0.19800
C625        C  0.32249790  0.97502348  0.89743199    -0.21300
C626        C  0.31400686  0.99051353  0.85792754    -0.09300
C627        C  0.33607360  0.00510535  0.83988209     0.29500
C628        C  0.36558844  0.00463247  0.86128671    -0.21300
C629        C  0.37423863  0.98906524  0.90077167    -0.09300
C630        C  0.35253798  0.97380117  0.91845364     0.29600
F631        F  0.35262687  0.46860063  0.96394746    -0.19800
H632        H  0.30616071  0.96329684  0.91185589     0.17900
H633        H  0.38182792  0.01639316  0.84670568     0.17900
F634        F  0.32886167  0.02049931  0.80184385    -0.19800
C635        C  0.14592642  0.97222229  0.86538774    -0.21300
C636        C  0.13722915  0.98893463  0.90441045    -0.09300
C637        C  0.16037534  0.50081081  0.92302149     0.29500
C638        C  0.18747595  0.00495318  0.89849158    -0.21300
C639        C  0.19586876  0.98860904  0.85930475    -0.09300
C640        C  0.17470341  0.97233008  0.84278924     0.29600
F641        F  0.18214859  0.95590908  0.80520727    -0.20600
H642        H  0.13014550  0.95937375  0.85201261     0.17900
H643        H  0.20631029  0.51171657  0.91456567     0.17900
F644        F  0.15435823  0.51523136  0.96174283    -0.19800
C645        C  0.32241587  0.97587683  0.60385566    -0.21300
C646        C  0.31206938  0.99528535  0.64096423    -0.09300
C647        C  0.33186595  0.01352417  0.65597318     0.29500
C648        C  0.36111618  0.01283299  0.63368837    -0.21300
C649        C  0.37162507  0.99342691  0.59644333    -0.09300
C650        C  0.35213478  0.97450256  0.58198995     0.29600
F651        F  0.34956564  0.47487942  0.53714755    -0.19800
H652        H  0.30766657  0.96135944  0.59199993     0.17900
H653        H  0.37561011  0.02752300  0.64574976     0.17900
F654        F  0.32233244  0.03291956  0.69149095    -0.19800
C655        C  0.15487339  0.51052215  0.58279700    -0.21300
C656        C  0.13480451  0.99506394  0.59580386    -0.09300
C657        C  0.14863684  0.97298806  0.63058025     0.29500
C658        C  0.17719395  0.97416592  0.65248906    -0.21300
C659        C  0.19314040  0.99658067  0.63989119    -0.09300
C660        C  0.17994010  0.01827846  0.60502747     0.29600
F661        F  0.19966729  0.53204478  0.59096511    -0.19800
H662        H  0.14562060  0.52733623  0.55582547     0.17900
H663        H  0.18726318  0.95704024  0.67909526     0.17900
F664        F  0.13467744  0.95024621  0.64384721    -0.19800
O665        O  0.59280625  0.46942299  0.08323624    -0.75300
O666        O  0.59003020  0.01747488  0.04551544    -0.54200
C667        C  0.60412192  0.49306139  0.07325814     0.78500
O668        O  0.53267010  0.39902842  0.42285107    -0.59900
O669        O  0.98315490  0.40222115  0.45861330    -0.52900
C670        C  0.00717987  0.38792684  0.43092226     0.70500
O671        O  0.59711971  0.46394685  0.42210959    -0.74400
O672        O  0.59001036  0.01624887  0.45412010    -0.55000
C673        C  0.60758403  0.48855130  0.43082740     0.76500
O674        O  0.52667757  0.40640249  0.08715846    -0.59600
O675        O  0.98099408  0.40599683  0.04928343    -0.52700
C676        C  0.00517022  0.39213938  0.07676858     0.73100
Zr677      Zr  0.54558378  0.45183136  0.06346533     2.54700
O678        O  0.59807242  0.39700325  0.05784514    -0.80100
O679        O  0.54654218  0.45243112  0.13924048    -0.93500
Zr680      Zr  0.55133532  0.44513463  0.44518668     2.64700
O681        O  0.60498231  0.39378094  0.46160652    -0.98500
O682        O  0.56006459  0.43439962  0.37075775    -0.80600
O683        O  0.56586256  0.46813898  0.00128100    -0.83900
O684        O  0.52887339  0.43039073  0.00255488    -2.18600
O685        O  0.91417358  0.01745328  0.08373256    -0.67300
O686        O  0.91618107  0.46992489  0.04781320    -0.51900
C687        C  0.90335680  0.99309309  0.07477533     0.71500
O688        O  0.97703277  0.08030046  0.41189293    -0.60200
O689        O  0.52336335  0.08046478  0.45087480    -0.52200
C690        C  0.50076426  0.09299890  0.42143457     0.73300
O691        O  0.91640311  0.01149884  0.41494115    -0.71600
O692        O  0.91848866  0.46698607  0.45344426    -0.50300
C693        C  0.90524160  0.98801807  0.42643619     0.74600
O694        O  0.97695817  0.08493295  0.07809398    -0.66900
O695        O  0.52482980  0.08225415  0.04148061    -0.54100
C696        C  0.50025610  0.09697641  0.06841549     0.73000
Zr697      Zr  0.95798074  0.03829239  0.05792791     2.77500
O698        O  0.90369883  0.09027440  0.04596845    -0.97700
O699        O  0.95360575  0.04705504  0.13292201    -0.78500
Zr700      Zr  0.96141670  0.03250579  0.43478384     2.70100
O701        O  0.90641528  0.08435563  0.42647345    -0.79800
O702        O  0.97142020  0.02276018  0.36030369    -0.98800
Zr703      Zr  0.53853531  0.03126863  0.49803731     2.21500
Zr704      Zr  0.96656213  0.45525968  0.00230751     2.11100
O705        O  0.94015462  0.01781058  0.49727315    -2.47500
O706        O  0.97645756  0.05642894  0.49538780    -0.79500
O707        O  0.98330968  0.47602124  0.06418514    -0.71700
O708        O  0.52343571  0.00926484  0.43572173    -2.32700
O709        O  0.51989074  0.01467370  0.06114132    -2.28900
O710        O  0.98905322  0.46886913  0.43794809    -0.73500
H711        H  0.53805091  0.40436519  0.50833989     0.78500
H712        H  0.53224769  0.01670106  0.41138409     0.79600
H713        H  0.91508597  0.02582104  0.99582813     0.81800
H714        H  0.52744102  0.02409020  0.08499253     0.79400
H715        H  0.53923562  0.45324152  0.35801292     0.42400
H716        H  0.96931663  0.00013588  0.35482725     0.41400
H717        H  0.90545509  0.09939155  0.45084162     0.41100
H718        H  0.88550386  0.08094642  0.04058136     0.39000
H719        H  0.97705664  0.03102411  0.14348277     0.42200
H720        H  0.54497832  0.47620669  0.14683275     0.36900
H721        H  0.61427379  0.39871020  0.07954178     0.43100
H722        H  0.61547471  0.38430890  0.43417450     0.39500
H723        H  0.89741446  0.10178170  0.07358563     0.44400
H724        H  0.57091611  0.43625630  0.14672113     0.43100
H725        H  0.62109794  0.40365414  0.47365895     0.43300
H726        H  0.95019320  0.04086659  0.34732733     0.43600
C727        C  0.50588279  0.27097804  0.16292149     0.80300
N728        N  0.50797644  0.26985056  0.20508276    -0.78000
C729        C  0.50833297  0.24131738  0.22599134     0.82700
N730        N  0.50684747  0.21363958  0.20445432    -0.78000
C731        C  0.50502540  0.21433467  0.16221528     0.82800
N732        N  0.50447052  0.24318198  0.14171223    -0.79700
C733        C  0.50996119  0.26833603  0.33595997     0.80300
N734        N  0.50879729  0.24000806  0.35603379    -0.78000
C735        C  0.50809785  0.21201864  0.33446966     0.82700
N736        N  0.50823806  0.21264200  0.29227336    -0.78000
C737        C  0.50935847  0.24071893  0.27169472     0.82800
N738        N  0.51021746  0.26854296  0.29360823    -0.79700
C739        C  0.77958820  0.49788099  0.16479281     0.80300
N740        N  0.77930575  0.49744461  0.20696804    -0.78000
C741        C  0.75132986  0.49616915  0.22785065     0.82700
N742        N  0.72343187  0.49537939  0.20630333    -0.78000
C743        C  0.72334978  0.49630932  0.16402752     0.82800
N744        N  0.75155337  0.49732553  0.14348130    -0.79700
C745        C  0.78163800  0.49370900  0.33627226     0.80300
N746        N  0.78030601  0.49525410  0.29414928    -0.78000
C747        C  0.75188471  0.49496324  0.27343525     0.82700
N748        N  0.72449097  0.49313853  0.29508900    -0.78000
C749        C  0.72542648  0.49180020  0.33734106     0.82800
N750        N  0.75408298  0.49203864  0.35771714    -0.79700
C751        C  0.98772692  0.16010598  0.33710869    -0.21300
C752        C  0.50610069  0.18159530  0.35667770    -0.09300
C753        C  0.51666428  0.17483758  0.39846694     0.29500
C754        C  0.51436874  0.14628183  0.41912083    -0.21300
C755        C  0.50133869  0.12388491  0.39890540    -0.09300
C756        C  0.98743180  0.13058313  0.35783729     0.29600
F757        F  0.97609526  0.10848028  0.33712030    -0.19800
H758        H  0.97884874  0.16451458  0.30512242     0.17900
H759        H  0.52295990  0.14164017  0.45117733     0.17900
F760        F  0.53007810  0.19521346  0.41928193    -0.19800
C761        C  0.01921585  0.35126948  0.36648145    -0.21300
C762        C  0.50824332  0.35777297  0.40711693    -0.09300
C763        C  0.49515805  0.33419257  0.42423280     0.29500
C764        C  0.49605415  0.30511676  0.40105150    -0.21300
C765        C  0.50978286  0.29902280  0.36028730    -0.09300
C766        C  0.01768541  0.32344936  0.34305407     0.29600
F767        F  0.03024788  0.31876974  0.30349559    -0.19800
H768        H  0.02972851  0.36861349  0.35206690     0.17900
H769        H  0.48573993  0.28744019  0.41501613     0.17900
F770        F  0.48246861  0.33859815  0.46374199    -0.19800
C771        C  0.01999123  0.17491615  0.09962385    -0.21300
C772        C  0.50373342  0.18408752  0.13846372    -0.09300
C773        C  0.49373998  0.15889447  0.15754425     0.29500
C774        C  0.49210347  0.13103792  0.13427286    -0.21300
C775        C  0.50089652  0.12735152  0.09184896    -0.09300
C776        C  0.01938782  0.14648171  0.07652852     0.29600
F777        F  0.03455268  0.14000343  0.03821966    -0.19800
H778        H  0.03263779  0.19088109  0.08634301     0.17900
H779        H  0.48446028  0.11192962  0.14964350     0.17900
F780        F  0.48495688  0.16133161  0.19846612    -0.19800
C781        C  0.98839872  0.34073678  0.08175021    -0.21300
C782        C  0.50478693  0.36227015  0.09872862    -0.09300
C783        C  0.52401644  0.35072336  0.13590245     0.29500
C784        C  0.52386466  0.32124951  0.15666859    -0.21300
C785        C  0.50542391  0.30213249  0.14044346    -0.09300
C786        C  0.98867900  0.31087206  0.10202176     0.29600
F787        F  0.97120537  0.29266916  0.08456383    -0.19800
H788        H  0.97453395  0.34825125  0.05244935     0.17900
H789        H  0.53870261  0.31302363  0.18528393     0.17900
F790        F  0.54290303  0.36783642  0.15250533    -0.19800
C791        C  0.82295328  0.47478380  0.39646905    -0.21300
C792        C  0.81325243  0.49274379  0.35850144    -0.09300
C793        C  0.83442110  0.50892537  0.34183231     0.29500
C794        C  0.86416306  0.50779080  0.36338943    -0.21300
C795        C  0.87403422  0.48975842  0.40144563    -0.09300
C796        C  0.85327582  0.47274850  0.41746233     0.29600
F797        F  0.85416976  0.96607510  0.46361397    -0.19800
H798        H  0.80736230  0.46166575  0.40961810     0.17900
H799        H  0.87964094  0.52092616  0.35000292     0.17900
F800        F  0.82609579  0.52642574  0.30508807    -0.19800
C801        C  0.64625296  0.47307899  0.36796442    -0.21300
C802        C  0.63832705  0.48874295  0.40761368    -0.09300
C803        C  0.65766379  0.00704654  0.42194068     0.29500
C804        C  0.68796095  0.50560387  0.40110350    -0.21300
C805        C  0.69548573  0.49047493  0.36119098    -0.09300
C806        C  0.67427809  0.47422971  0.34471506     0.29600
F807        F  0.68089930  0.45893813  0.30646787    -0.20600
H808        H  0.63030246  0.46044276  0.35452604     0.17900
H809        H  0.70357336  0.01809763  0.41398887     0.17900
F810        F  0.65046142  0.02295274  0.45984247    -0.19800
C811        C  0.82133245  0.47745207  0.10530284    -0.21300
C812        C  0.81077624  0.49718077  0.14214074    -0.09300
C813        C  0.83037670  0.51567713  0.15698719     0.29500
C814        C  0.85993200  0.51455991  0.13499789    -0.21300
C815        C  0.87069535  0.49474572  0.09805111    -0.09300
C816        C  0.85112240  0.47591059  0.08355664     0.29600
F817        F  0.86135746  0.95584724  0.04720951    -0.19800
H818        H  0.80666943  0.46281827  0.09352839     0.17900
H819        H  0.87441740  0.52927832  0.14699803     0.17900
F820        F  0.82035009  0.53572586  0.19198831    -0.19800
C821        C  0.65292464  0.01496612  0.08298629    -0.21300
C822        C  0.63543314  0.49295163  0.09598471    -0.09300
C823        C  0.64872600  0.47165755  0.13150656     0.29500
C824        C  0.67692713  0.47340962  0.15376414    -0.21300
C825        C  0.69331183  0.49526777  0.14044421    -0.09300
C826        C  0.68116715  0.51546115  0.10422893     0.29600
F827        F  0.69819616  0.03610484  0.09038413    -0.19800
H828        H  0.64436940  0.03065670  0.05505245     0.17900
H829        H  0.68642148  0.45711894  0.18113415     0.17900
F830        F  0.63460496  0.44915080  0.14511490    -0.19800
O831        O  0.59142524  0.46996652  0.58653883    -0.75300
O832        O  0.58848023  0.01912927  0.54383483    -0.54200
C833        C  0.60349618  0.49299948  0.57634231     0.78500
O834        O  0.52822712  0.40172345  0.92017274    -0.59900
O835        O  0.98144877  0.40277724  0.96034638    -0.52900
C836        C  0.00468903  0.38869944  0.93182401     0.70500
O837        O  0.59452066  0.46549997  0.91847600    -0.74400
O838        O  0.59164751  0.01520050  0.95413618    -0.55000
C839        C  0.60554217  0.48967412  0.92743282     0.76500
O840        O  0.52430930  0.40750141  0.59021509    -0.59600
O841        O  0.98022086  0.40674259  0.54978903    -0.52700
C842        C  0.00271801  0.39414152  0.57936093     0.73100
Zr843      Zr  0.54342646  0.45319138  0.56782227     2.54700
O844        O  0.59597046  0.39855791  0.57411524    -0.80100
O845        O  0.53752122  0.46201681  0.64295235    -0.93500
Zr846      Zr  0.54743783  0.44801376  0.94018805     2.64700
O847        O  0.60095421  0.39394209  0.94405375    -0.98500
O848        O  0.54769288  0.44514569  0.86452275    -0.80600
O849        O  0.56684097  0.46729734  0.50648058    -0.83900
O850        O  0.52930394  0.42971678  0.50650921    -2.18600
O851        O  0.91183829  0.01994150  0.58085057    -0.67300
O852        O  0.91586005  0.47079289  0.54495406    -0.51900
C853        C  0.90199868  0.99470013  0.57332802     0.71500
O854        O  0.97787221  0.07978103  0.91409290    -0.60200
O855        O  0.52484159  0.08001755  0.95119744    -0.52200
C856        C  0.50070260  0.09375008  0.92353191     0.73300
O857        O  0.91768568  0.01140501  0.91206711    -0.71600
O858        O  0.91741888  0.46735364  0.95556523    -0.50300
C859        C  0.90566966  0.98852434  0.92331179     0.74600
O860        O  0.97408046  0.08760325  0.57841197    -0.66900
O861        O  0.52315114  0.08301963  0.54186192    -0.54100
C862        C  0.49955804  0.09670116  0.57018489     0.73000
Zr863      Zr  0.95669265  0.04004988  0.55782746     2.77500
O864        O  0.90263616  0.09239926  0.54592717    -0.97700
O865        O  0.94967693  0.04688546  0.63291420    -0.78500
Zr866      Zr  0.96249529  0.03165137  0.93464788     2.70100
O867        O  0.90807759  0.08444073  0.92859503    -0.79800
O868        O  0.97164752  0.02591158  0.85967014    -0.98800
Zr869      Zr  0.54030245  0.03033287  0.99825309     2.21500
Zr870      Zr  0.96748782  0.45471631  0.50099814     2.11100
O871        O  0.94050377  0.01733633  0.99684602    -2.47500
O872        O  0.97817234  0.05445820  0.99565558    -0.79500
O873        O  0.98226445  0.47665227  0.56337360    -0.71700
O874        O  0.52441412  0.00890640  0.93592867    -2.32700
O875        O  0.51855137  0.01548452  0.56112344    -2.28900
O876        O  0.98566538  0.47077131  0.93853643    -0.73500
H877        H  0.53778286  0.40497604  0.00346496     0.78500
H878        H  0.53301649  0.01658541  0.91161772     0.79600
H879        H  0.91477737  0.02586086  0.49623969     0.81800
H880        H  0.52603100  0.02492372  0.58499971     0.79400
H881        H  0.54634985  0.46844143  0.85531354     0.42400
H882        H  0.97130563  0.00275311  0.85262423     0.41400
H883        H  0.89756462  0.08811046  0.95679900     0.41100
H884        H  0.91038058  0.10881678  0.53075120     0.39000
H885        H  0.97036844  0.02693704  0.64423114     0.42200
H886        H  0.54499779  0.48147230  0.64883966     0.36900
H887        H  0.60029184  0.39540568  0.60441769     0.43100
H888        H  0.59280617  0.37502887  0.95022411     0.39500
H889        H  0.88923434  0.08512882  0.52511355     0.44400
H890        H  0.55655479  0.44082560  0.65477095     0.43100
H891        H  0.60959855  0.38933219  0.91498460     0.43300
H892        H  0.94951150  0.04346693  0.84775808     0.43600
C893        C  0.50278215  0.27201139  0.66424826     0.80300
N894        N  0.50282693  0.27173205  0.70647155    -0.78000
C895        C  0.50273664  0.24343030  0.72745240     0.82700
N896        N  0.50286564  0.21507999  0.70601384    -0.78000
C897        C  0.50305592  0.21480689  0.66374669     0.82800
N898        N  0.50289626  0.24350182  0.64310765    -0.79700
C899        C  0.50341771  0.27125274  0.83696588     0.80300
N900        N  0.50220939  0.24314442  0.85738194    -0.78000
C901        C  0.50112467  0.21525354  0.83612908     0.82700
N902        N  0.50105662  0.21561764  0.79391725    -0.78000
C903        C  0.50240402  0.24349207  0.77307689     0.82800
N904        N  0.50357865  0.27126714  0.79467419    -0.79700
C905        C  0.78168720  0.49357974  0.66392180     0.80300
N906        N  0.78257014  0.49177980  0.70616831    -0.78000
C907        C  0.75538058  0.48909746  0.72755210     0.82700
N908        N  0.72725128  0.48840839  0.70654121    -0.78000
C909        C  0.72600024  0.49069948  0.66445333     0.82800
N910        N  0.75330474  0.49308774  0.64328149    -0.79700
C911        C  0.78435695  0.48730395  0.83660203     0.80300
N912        N  0.78408119  0.48790220  0.79439709    -0.78000
C913        C  0.75585938  0.48774625  0.77318317     0.82700
N914        N  0.72767485  0.48723069  0.79444054    -0.78000
C915        C  0.72761658  0.48681998  0.83672985     0.82800
N916        N  0.75610907  0.48680451  0.85762310    -0.79700
C917        C  0.98243013  0.16246552  0.84145925    -0.21300
C918        C  0.50041243  0.18463311  0.85877866    -0.09300
C919        C  0.51626118  0.17543495  0.89811968     0.29500
C920        C  0.51620500  0.14590794  0.91880627    -0.21300
C921        C  0.49986377  0.12527927  0.90117671    -0.09300
C922        C  0.98332812  0.13244691  0.86201990     0.29600
F923        F  0.96817824  0.11255082  0.84337654    -0.19800
H924        H  0.96972324  0.16899718  0.81135923     0.17900
H925        H  0.52900670  0.13921683  0.94880423     0.17900
F926        F  0.53278193  0.19429831  0.91617013    -0.19800
C927        C  0.01317842  0.35369734  0.86689378    -0.21300
C928        C  0.50451264  0.35951676  0.90724543    -0.09300
C929        C  0.49097349  0.33644705  0.92484003     0.29500
C930        C  0.49115582  0.30759903  0.90194258    -0.21300
C931        C  0.50414815  0.30155478  0.86090038    -0.09300
C932        C  0.01057755  0.32637681  0.84365634     0.29600
F933        F  0.01928754  0.32391685  0.80271711    -0.19800
H934        H  0.02187022  0.37203895  0.85148878     0.17900
H935        H  0.48057947  0.29024956  0.91621398     0.17900
F936        F  0.47802977  0.34137352  0.96425528    -0.19800
C937        C  0.01945521  0.17610054  0.60321659    -0.21300
C938        C  0.50288516  0.18388812  0.64019464    -0.09300
C939        C  0.50172348  0.15419276  0.66059416     0.29500
C940        C  0.50021450  0.12614261  0.63750982    -0.21300
C941        C  0.50057081  0.12671673  0.59392107    -0.09300
C942        C  0.01899936  0.14778093  0.57973460     0.29600
F943        F  0.03868002  0.13846628  0.54443922    -0.19800
H944        H  0.03557579  0.18962847  0.59275565     0.17900
H945        H  0.49925358  0.10363670  0.65371721     0.17900
F946        F  0.50195965  0.15203370  0.70273026    -0.19800
C947        C  0.98508972  0.34339887  0.58526881    -0.21300
C948        C  0.50167760  0.36393833  0.60117565    -0.09300
C949        C  0.51619155  0.35523117  0.64127058     0.29500
C950        C  0.51632432  0.32536812  0.66139458    -0.21300
C951        C  0.50266500  0.30319007  0.64184877    -0.09300
C952        C  0.98499156  0.31386151  0.60587462     0.29600
F953        F  0.96769682  0.29553195  0.58830404    -0.19800
H954        H  0.97201625  0.35027645  0.55542127     0.17900
H955        H  0.52748290  0.31942360  0.69232688     0.17900
F956        F  0.52984534  0.37573278  0.66141588    -0.19800
C957        C  0.82584973  0.46854260  0.89633999    -0.21300
C958        C  0.81480693  0.48790250  0.85950383    -0.09300
C959        C  0.83273030  0.50814738  0.84513966     0.29500
C960        C  0.86134612  0.50886572  0.86732859    -0.21300
C961        C  0.87281347  0.48924112  0.90410772    -0.09300
C962        C  0.85469332  0.46896682  0.91844181     0.29600
F963        F  0.86270542  0.95228244  0.95153270    -0.19800
H964        H  0.81228557  0.45278751  0.90784391     0.17900
H965        H  0.87456767  0.52482565  0.85551202     0.17900
F966        F  0.82190309  0.52814849  0.81037104    -0.19800
C967        C  0.64502612  0.47317495  0.86502137    -0.21300
C968        C  0.63701564  0.48888708  0.90467000    -0.09300
C969        C  0.65898498  0.00587900  0.92085077     0.29500
C970        C  0.68890448  0.50247569  0.89985721    -0.21300
C971        C  0.69655329  0.48723219  0.85995610    -0.09300
C972        C  0.67427852  0.47254912  0.84272081     0.29600
F973        F  0.68114788  0.45687375  0.80468938    -0.20600
H974        H  0.62835413  0.46163851  0.85096076     0.17900
H975        H  0.70549671  0.01596983  0.91356429     0.17900
F976        F  0.65354127  0.01901542  0.96019477    -0.19800
C977        C  0.82189537  0.47632299  0.60263246    -0.21300
C978        C  0.81166183  0.49498228  0.64025648    -0.09300
C979        C  0.83036805  0.51449303  0.65477532     0.29500
C980        C  0.85907654  0.51489890  0.63215062    -0.21300
C981        C  0.87009436  0.49537302  0.59502118    -0.09300
C982        C  0.85100712  0.47608860  0.58040688     0.29600
F983        F  0.85961315  0.95776887  0.54611973    -0.19800
H984        H  0.80776494  0.46117140  0.59084154     0.17900
H985        H  0.87301111  0.53016306  0.64412895     0.17900
F986        F  0.82050001  0.53372607  0.69037512    -0.19800
C987        C  0.64892891  0.02024767  0.58214327    -0.21300
C988        C  0.63498584  0.49228149  0.59916230    -0.09300
C989        C  0.65016255  0.46809179  0.63182499     0.29500
C990        C  0.67948355  0.46808419  0.65325504    -0.21300
C991        C  0.69487986  0.49130896  0.64196461    -0.09300
C992        C  0.68021588  0.51517859  0.60933268     0.29600
F993        F  0.69179691  0.04446044  0.59005155    -0.19800
H994        H  0.63936340  0.03638864  0.55469693     0.17900
H995        H  0.69063711  0.44938388  0.67824262     0.17900
F996        F  0.63703117  0.44417877  0.64312622    -0.19800
O997        O  0.59321387  0.96986008  0.08329702    -0.75300
O998        O  0.58995750  0.51681875  0.04526924    -0.54200
C999        C  0.60424044  0.99382700  0.07363463     0.78500
O1000       O  0.53088872  0.90086476  0.41969248    -0.59900
O1001       O  0.98280963  0.90355302  0.45860872    -0.52900
C1002       C  0.00618911  0.88959631  0.43017027     0.70500
O1003       O  0.59489528  0.96668515  0.41872007    -0.74400
O1004       O  0.59275999  0.51332384  0.45753788    -0.55000
C1005       C  0.60505138  0.99149027  0.42746451     0.76500
O1006       O  0.52727272  0.90610984  0.08709163    -0.59600
O1007       O  0.98024312  0.90615666  0.04806569    -0.52700
C1008       C  0.00319421  0.89304654  0.07697748     0.73100
Zr1009     Zr  0.54569722  0.95223219  0.06406429     2.54700
O1010       O  0.59908124  0.89815051  0.06812518    -0.80100
O1011       O  0.54110269  0.95911837  0.13940354    -0.93500
Zr1012     Zr  0.54979851  0.94690551  0.44146826     2.64700
O1013       O  0.60307702  0.89438683  0.45503380    -0.98500
O1014       O  0.55731457  0.93781614  0.36661363    -0.80600
O1015       O  0.56734560  0.96768682  0.00216493    -0.83900
O1016       O  0.53032287  0.92964912  0.00283541    -2.18600
O1017       O  0.91230110  0.51915429  0.08306555    -0.67300
O1018       O  0.91706402  0.96944323  0.04651616    -0.51900
C1019       C  0.90173587  0.49451364  0.07481181     0.71500
O1020       O  0.97978633  0.57997860  0.41520559    -0.60200
O1021       O  0.52765743  0.57846213  0.45250164    -0.52200
C1022       C  0.50452925  0.59139317  0.42359724     0.73300
O1023       O  0.91722318  0.51276431  0.41342784    -0.71600
O1024       O  0.91851591  0.96592051  0.45610632    -0.50300
C1025       C  0.90531650  0.48966586  0.42420916     0.74600
O1026       O  0.97595012  0.58563056  0.07905693    -0.66900
O1027       O  0.52498636  0.58235347  0.04383129    -0.54100
C1028       C  0.50074469  0.59709034  0.07127736     0.73000
Zr1029     Zr  0.95775240  0.53849561  0.05956527     2.77500
O1030       O  0.90400212  0.59209656  0.05342818    -0.97700
O1031       O  0.95580412  0.54295312  0.13510439    -0.78500
Zr1032     Zr  0.96390258  0.53128690  0.43414946     2.70100
O1033       O  0.90922630  0.58235937  0.42065081    -0.79800
O1034       O  0.97651176  0.52141452  0.36007573    -0.98800
Zr1035     Zr  0.54062703  0.52984619  0.50062879     2.21500
Zr1036     Zr  0.96733797  0.95468300  0.00067577     2.11100
O1037       O  0.94126651  0.51744133  0.49620672    -2.47500
O1038       O  0.97841861  0.55476455  0.49545551    -0.79500
O1039       O  0.98327125  0.97587721  0.06285221    -0.71700
O1040       O  0.52598738  0.50742469  0.43831568    -2.32700
O1041       O  0.52011613  0.51438948  0.06232021    -2.28900
O1042       O  0.98752217  0.97023698  0.43864533    -0.73500
H1043       H  0.53939198  0.90460196  0.50511388     0.78500
H1044       H  0.53534762  0.51438617  0.41407348     0.79600
H1045       H  0.91427139  0.52657637  0.99817515     0.81800
H1046       H  0.52817260  0.52326762  0.08623275     0.79400
H1047       H  0.53300100  0.94547498  0.35568331     0.42400
H1048       H  0.96901475  0.50226327  0.35257755     0.41400
H1049       H  0.90796855  0.58445743  0.38995913     0.41100
H1050       H  0.88786301  0.58521938  0.03639479     0.39000
H1051       H  0.98083274  0.53184405  0.14380985     0.42200
H1052       H  0.53980987  0.98316064  0.14485209     0.36900
H1053       H  0.61546012  0.90147248  0.04779766     0.43100
H1054       H  0.61723596  0.89073886  0.42925764     0.39500
H1055       H  0.89350767  0.59601196  0.08166373     0.44400
H1056       H  0.56463224  0.94319242  0.14983574     0.43100
H1057       H  0.61611950  0.90204074  0.47593095     0.43300
H1058       H  0.95901923  0.54267305  0.34646544     0.43600
C1059       C  0.50151826  0.77358794  0.16505241     0.80300
N1060       N  0.50092383  0.77339003  0.20735004    -0.78000
C1061       C  0.49950238  0.74544284  0.22813639     0.82700
N1062       N  0.49886499  0.71751840  0.20639726    -0.78000
C1063       C  0.50003164  0.71731335  0.16418182     0.82800
N1064       N  0.50139615  0.74530952  0.14368101    -0.79700
C1065       C  0.50194912  0.77183652  0.33793807     0.80300
N1066       N  0.50136877  0.74336315  0.35823424    -0.78000
C1067       C  0.49999887  0.71562248  0.33682254     0.82700
N1068       N  0.49886922  0.71669312  0.29456621    -0.78000
C1069       C  0.49941252  0.74503196  0.27387925     0.82800
N1070       N  0.50104929  0.77245614  0.29568690    -0.79700
C1071       C  0.78181355  0.99496166  0.16558158     0.80300
N1072       N  0.78157375  0.99421480  0.20777364    -0.78000
C1073       C  0.75311767  0.99403762  0.22861456     0.82700
N1074       N  0.72464906  0.99471692  0.20703505    -0.78000
C1075       C  0.72441200  0.99591556  0.16476936     0.82800
N1076       N  0.75316027  0.99579980  0.14420077    -0.79700
C1077       C  0.78318306  0.99033930  0.33746671     0.80300
N1078       N  0.78216130  0.99187759  0.29530153    -0.78000
C1079       C  0.75356913  0.99252933  0.27420533     0.82700
N1080       N  0.72569442  0.99154051  0.29549897    -0.78000
C1081       C  0.72628032  0.99012147  0.33771576     0.82800
N1082       N  0.75503520  0.98960221  0.35854691    -0.79700
C1083       C  0.98903427  0.65946892  0.33973932    -0.21300
C1084       C  0.50115631  0.68392752  0.35918873    -0.09300
C1085       C  0.51651821  0.67534633  0.39893971     0.29500
C1086       C  0.51821879  0.64486811  0.41915938    -0.21300
C1087       C  0.50411273  0.62260991  0.40069811    -0.09300
C1088       C  0.99004372  0.62953900  0.36072477     0.29600
F1089       F  0.97906846  0.60692461  0.34053362    -0.19800
H1090       H  0.97916720  0.66388098  0.30815073     0.17900
H1091       H  0.53019641  0.63896803  0.44967082     0.17900
F1092       F  0.53061108  0.69592675  0.41807245    -0.19800
C1093       C  0.01426058  0.85461169  0.36467789    -0.21300
C1094       C  0.50726479  0.85841877  0.40761024    -0.09300
C1095       C  0.49500720  0.83487209  0.42648331     0.29500
C1096       C  0.49360134  0.80666436  0.40373506    -0.21300
C1097       C  0.50416000  0.80152728  0.36176962    -0.09300
C1098       C  0.01182386  0.82694673  0.34168525     0.29600
F1099       F  0.02149522  0.82353128  0.30101821    -0.19800
H1100       H  0.02312442  0.87279564  0.34920477     0.17900
H1101       H  0.48385749  0.78903507  0.41892556     0.17900
F1102       F  0.48493449  0.83873532  0.46704151    -0.19800
C1103       C  0.02608614  0.66945200  0.11030549    -0.21300
C1104       C  0.50021761  0.68677607  0.14061845    -0.09300
C1105       C  0.47372959  0.67435004  0.14685796     0.29500
C1106       C  0.47398261  0.64547769  0.12400238    -0.21300
C1107       C  0.50079757  0.62825573  0.09458822    -0.09300
C1108       C  0.02677049  0.64036880  0.08738881     0.29600
F1109       F  0.05352056  0.62489455  0.05986458    -0.19800
H1110       H  0.04658206  0.67902781  0.10528367     0.17900
H1111       H  0.45297395  0.63670781  0.12938859     0.17900
F1112       F  0.44697194  0.69088468  0.17406735    -0.19800
C1113       C  0.98604895  0.84195355  0.08171839    -0.21300
C1114       C  0.50346181  0.86349376  0.09993807    -0.09300
C1115       C  0.52035294  0.85333816  0.13873682     0.29500
C1116       C  0.51942064  0.82421709  0.15976964    -0.21300
C1117       C  0.50219143  0.80432601  0.14242810    -0.09300
C1118       C  0.98510413  0.81281473  0.10247339     0.29600
F1119       F  0.96852057  0.79415473  0.08407139    -0.19800
H1120       H  0.97404726  0.84836741  0.05124891     0.17900
H1121       H  0.53253761  0.81698195  0.18956528     0.17900
F1122       F  0.53733777  0.87174206  0.15681567    -0.19800
C1123       C  0.82008747  0.97825295  0.40188067    -0.21300
C1124       C  0.81481812  0.98907230  0.36009195    -0.09300
C1125       C  0.84029637  0.99821509  0.34020908     0.29500
C1126       C  0.86969362  0.99737458  0.36200943    -0.21300
C1127       C  0.87479349  0.98685953  0.40374465    -0.09300
C1128       C  0.85001762  0.97667187  0.42339334     0.29600
F1129       F  0.86192431  0.45435940  0.45354994    -0.19800
H1130       H  0.80116954  0.97073059  0.41793123     0.17900
H1131       H  0.88864118  0.00494013  0.34606956     0.17900
F1132       F  0.83673462  0.00859062  0.29986632    -0.19800
C1133       C  0.64475560  0.97496143  0.36566094    -0.21300
C1134       C  0.63612953  0.99138296  0.40483782    -0.09300
C1135       C  0.65948223  0.50512032  0.42401276     0.29500
C1136       C  0.68735123  0.00589948  0.40024318    -0.21300
C1137       C  0.69560656  0.98992653  0.36083229    -0.09300
C1138       C  0.67400937  0.97443563  0.34365572     0.29600
F1139       F  0.68148222  0.95817590  0.30596990    -0.20600
H1140       H  0.62859361  0.96276319  0.35175761     0.17900
H1141       H  0.70385187  0.51836761  0.41438912     0.17900
F1142       F  0.65298925  0.52031821  0.46232887    -0.19800
C1143       C  0.82321576  0.97540838  0.10537298    -0.21300
C1144       C  0.81331974  0.99396040  0.14307950    -0.09300
C1145       C  0.83376117  0.01130721  0.15885201     0.29500
C1146       C  0.86299606  0.01079828  0.13658214    -0.21300
C1147       C  0.87285171  0.99246920  0.09856944    -0.09300
C1148       C  0.85285771  0.97424429  0.08349242     0.29600
F1149       F  0.86021117  0.45648276  0.04803724    -0.19800
H1150       H  0.80809195  0.96148312  0.09294385     0.17900
H1151       H  0.87793797  0.02483554  0.14918942     0.17900
F1152       F  0.82484886  0.02974414  0.19509201    -0.19800
C1153       C  0.65225178  0.51460061  0.08257775    -0.21300
C1154       C  0.63526578  0.99418967  0.09690075    -0.09300
C1155       C  0.64750847  0.97406426  0.13346059     0.29500
C1156       C  0.67597783  0.97543828  0.15560014    -0.21300
C1157       C  0.69366817  0.99588871  0.14139592    -0.09300
C1158       C  0.68202186  0.01558162  0.10470967     0.29600
F1159       F  0.69661824  0.53677265  0.09036824    -0.19800
H1160       H  0.64308135  0.53093128  0.05521069     0.17900
H1161       H  0.68470957  0.95981775  0.18358537     0.17900
F1162       F  0.63205655  0.95304255  0.14821666    -0.19800
O1163       O  0.59128319  0.97274874  0.58374205    -0.75300
O1164       O  0.59009600  0.51643452  0.54787151    -0.54200
C1165       C  0.60233131  0.99645922  0.57290306     0.78500
O1166       O  0.53004920  0.90122728  0.91886140    -0.59900
O1167       O  0.98223502  0.90287043  0.95757022    -0.52900
C1168       C  0.00547907  0.88916444  0.92894343     0.70500
O1169       O  0.59454716  0.96748176  0.91614856    -0.74400
O1170       O  0.59097466  0.51448445  0.95429460    -0.55000
C1171       C  0.60552202  0.99158333  0.92588716     0.76500
O1172       O  0.52690362  0.90679421  0.58836489    -0.59600
O1173       O  0.98190443  0.90705965  0.55061379    -0.52700
C1174       C  0.00487460  0.89428667  0.57960184     0.73100
Zr1175     Zr  0.54506643  0.95308852  0.56463112     2.54700
O1176       O  0.59828064  0.89868431  0.56675046    -0.80100
O1177       O  0.54115219  0.95930614  0.64003165    -0.93500
Zr1178     Zr  0.55048914  0.94645798  0.94097588     2.64700
O1179       O  0.60420259  0.89545401  0.95816738    -0.98500
O1180       O  0.56055901  0.93406120  0.86692071    -0.80600
O1181       O  0.56626095  0.96869209  0.50250406    -0.83900
O1182       O  0.53025725  0.92998614  0.50361391    -2.18600
O1183       O  0.91222780  0.51948592  0.58126906    -0.67300
O1184       O  0.91709668  0.96956173  0.54717331    -0.51900
C1185       C  0.90136837  0.49519683  0.57220830     0.71500
O1186       O  0.97679430  0.58102658  0.91442447    -0.60200
O1187       O  0.52384170  0.58042270  0.95160986    -0.52200
C1188       C  0.49985198  0.59397828  0.92368969     0.73300
O1189       O  0.91420623  0.51424416  0.91634372    -0.71600
O1190       O  0.91816036  0.96675198  0.95353526    -0.50300
C1191       C  0.90341803  0.49030290  0.92688968     0.74600
O1192       O  0.97385977  0.58759122  0.57587782    -0.66900
O1193       O  0.52485156  0.58254624  0.54262560    -0.54100
C1194       C  0.50012701  0.59732679  0.56936482     0.73000
Zr1195     Zr  0.95747369  0.53899872  0.55755562     2.77500
O1196       O  0.90205085  0.58994044  0.54752827    -0.97700
O1197       O  0.95410382  0.54695690  0.63272711    -0.78500
Zr1198     Zr  0.96054995  0.53325055  0.93600747     2.70100
O1199       O  0.90650484  0.58638433  0.92876396    -0.79800
O1200       O  0.96886037  0.52502945  0.86105494    -0.98800
Zr1201     Zr  0.53950460  0.53091481  0.99914467     2.21500
Zr1202     Zr  0.96776623  0.95518997  0.50218176     2.11100
O1203       O  0.93970330  0.51805281  0.99865921    -2.47500
O1204       O  0.97681328  0.55555121  0.99695460    -0.79500
O1205       O  0.98293389  0.97762983  0.56379939    -0.71700
O1206       O  0.52213299  0.51047849  0.93709315    -2.32700
O1207       O  0.51874951  0.51554516  0.56348669    -2.28900
O1208       O  0.98794550  0.96934492  0.93744470    -0.73500
H1209       H  0.53915181  0.90426679  0.00414683     0.78500
H1210       H  0.53066393  0.51816181  0.91271759     0.79600
H1211       H  0.91584599  0.52620238  0.49482680     0.81800
H1212       H  0.52598444  0.52508799  0.58746953     0.79400
H1213       H  0.54389598  0.95577076  0.85323891     0.42400
H1214       H  0.95779958  0.50864391  0.85336235     0.41400
H1215       H  0.88900850  0.58233040  0.94663155     0.41100
H1216       H  0.89692966  0.60191165  0.57495728     0.39000
H1217       H  0.97167343  0.52443554  0.64374725     0.42200
H1218       H  0.54518558  0.98084336  0.64613954     0.36900
H1219       H  0.61761646  0.90553444  0.55817085     0.43100
H1220       H  0.60571164  0.87748434  0.93700944     0.39500
H1221       H  0.90822281  0.60589062  0.52937540     0.44400
H1222       H  0.56261475  0.93967857  0.65035782     0.43100
H1223       H  0.62370109  0.90253541  0.95102865     0.43300
H1224       H  0.95309184  0.54796425  0.84905093     0.43600
C1225       C  0.50358796  0.77210449  0.66433192     0.80300
N1226       N  0.50473142  0.77106042  0.70651561    -0.78000
C1227       C  0.50462249  0.74258504  0.72715993     0.82700
N1228       N  0.50370924  0.71482731  0.70542191    -0.78000
C1229       C  0.50278944  0.71536825  0.66317844     0.82800
N1230       N  0.50261074  0.74419686  0.64289941    -0.79700
C1231       C  0.50357945  0.77107331  0.83643713     0.80300
N1232       N  0.50182260  0.74324717  0.85700920    -0.78000
C1233       C  0.50142248  0.71495665  0.83588502     0.82700
N1234       N  0.50252630  0.71473466  0.79364542    -0.78000
C1235       C  0.50426807  0.74242551  0.77274765     0.82800
N1236       N  0.50478960  0.77046835  0.79423327    -0.79700
C1237       C  0.77859956  0.00105735  0.66241721     0.80300
N1238       N  0.77898820  0.99966254  0.70455332    -0.78000
C1239       C  0.75082131  0.99931032  0.72573607     0.82700
N1240       N  0.72205957  0.00035154  0.70456409    -0.78000
C1241       C  0.72119877  0.00224222  0.66236067     0.82800
N1242       N  0.74965621  0.00232375  0.64135586    -0.79700
C1243       C  0.78228321  0.99338811  0.83419176     0.80300
N1244       N  0.78083999  0.99584484  0.79208271    -0.78000
C1245       C  0.75196097  0.99692188  0.77120092     0.82700
N1246       N  0.72431676  0.99553829  0.79258614    -0.78000
C1247       C  0.72531198  0.99319525  0.83470978     0.82800
N1248       N  0.75438917  0.99211768  0.85538604    -0.79700
C1249       C  0.98683544  0.66062972  0.83933122    -0.21300
C1250       C  0.50017946  0.68452382  0.85867247    -0.09300
C1251       C  0.51335417  0.67688642  0.89945407     0.29500
C1252       C  0.51338716  0.64726403  0.92000293    -0.21300
C1253       C  0.49932168  0.62522748  0.90103018    -0.09300
C1254       C  0.98643072  0.63132224  0.86038375     0.29600
F1255       F  0.97329092  0.61021851  0.84061617    -0.19800
H1256       H  0.97636910  0.66583329  0.80802830     0.17900
H1257       H  0.52410524  0.64180914  0.95117735     0.17900
F1258       F  0.52691647  0.69755846  0.91935869    -0.19800
C1259       C  0.01566201  0.85326159  0.86420294    -0.21300
C1260       C  0.50532728  0.85962310  0.90551724    -0.09300
C1261       C  0.49213873  0.83649713  0.92375975     0.29500
C1262       C  0.49167317  0.80780810  0.90112119    -0.21300
C1263       C  0.50413928  0.80168069  0.85990023    -0.09300
C1264       C  0.01460109  0.82491923  0.84151377     0.29600
F1265       F  0.02596296  0.82065889  0.80145059    -0.19800
H1266       H  0.02478422  0.87133319  0.84891513     0.17900
H1267       H  0.48142502  0.79040897  0.91591927     0.17900
F1268       F  0.48058285  0.84097634  0.96377367    -0.19800
C1269       C  0.01654700  0.67784588  0.59934684    -0.21300
C1270       C  0.50192267  0.68499706  0.63927939    -0.09300
C1271       C  0.49688923  0.65704399  0.65919529     0.29500
C1272       C  0.49573044  0.62904155  0.63590857    -0.21300
C1273       C  0.50045209  0.62775242  0.59268812    -0.09300
C1274       C  0.01654841  0.64911922  0.57620794     0.29600
F1275       F  0.03428070  0.64109728  0.53948632    -0.19800
H1276       H  0.03095331  0.69267465  0.58750907     0.17900
H1277       H  0.49182954  0.60785136  0.65182305     0.17900
F1278       F  0.49302491  0.65651317  0.70108404    -0.19800
C1279       C  0.98706327  0.84370282  0.58473778    -0.21300
C1280       C  0.50397920  0.86325489  0.60047998    -0.09300
C1281       C  0.51935514  0.85400663  0.64012949     0.29500
C1282       C  0.51873604  0.82459281  0.66076591    -0.21300
C1283       C  0.50349049  0.80337177  0.64211406    -0.09300
C1284       C  0.98631832  0.81430634  0.60497331     0.29600
F1285       F  0.96839740  0.79672168  0.58713451    -0.19800
H1286       H  0.97402603  0.85091789  0.55490885     0.17900
H1287       H  0.53068461  0.81813906  0.69126825     0.17900
F1288       F  0.53462535  0.87351624  0.65932987    -0.19800
C1289       C  0.82352903  0.97362847  0.89463331    -0.21300
C1290       C  0.81413998  0.99163690  0.85662203    -0.09300
C1291       C  0.83586176  0.00721702  0.83999801     0.29500
C1292       C  0.86558248  0.00576646  0.86173208    -0.21300
C1293       C  0.87495687  0.98799793  0.89996570    -0.09300
C1294       C  0.85401620  0.97109382  0.91571973     0.29600
F1295       F  0.86439872  0.44988205  0.95399018    -0.19800
H1296       H  0.80759717  0.96084531  0.90768956     0.17900
H1297       H  0.88134312  0.01862306  0.84840285     0.17900
F1298       F  0.82807127  0.02456327  0.80314133    -0.19800
C1299       C  0.64278649  0.97903824  0.86182263    -0.21300
C1300       C  0.63612009  0.99225521  0.90266984    -0.09300
C1301       C  0.65933496  0.50356604  0.92194328     0.29500
C1302       C  0.68821873  0.00551265  0.89878295    -0.21300
C1303       C  0.69474334  0.99250183  0.85787238    -0.09300
C1304       C  0.67154837  0.97945085  0.83940437     0.29600
F1305       F  0.67694768  0.96644520  0.79999306    -0.20600
H1306       H  0.62544770  0.96868062  0.84698848     0.17900
H1307       H  0.70563745  0.51397227  0.91384991     0.17900
F1308       F  0.65305769  0.51833884  0.96048257    -0.19800
C1309       C  0.82031756  0.97971738  0.60289104    -0.21300
C1310       C  0.81013397  0.99938204  0.63980355    -0.09300
C1311       C  0.83083735  0.01647070  0.65537429     0.29500
C1312       C  0.86077872  0.01451170  0.63371789    -0.21300
C1313       C  0.87096405  0.99508682  0.59649868    -0.09300
C1314       C  0.85066242  0.97718827  0.58158565     0.29600
F1315       F  0.86024212  0.45704070  0.54462335    -0.19800
H1316       H  0.80497788  0.96589132  0.59079741     0.17900
H1317       H  0.87601943  0.02829801  0.64617911     0.17900
F1318       F  0.82159965  0.03592822  0.69087285    -0.19800
C1319       C  0.65036935  0.51585884  0.58843117    -0.21300
C1320       C  0.63289768  0.99792029  0.59583135    -0.09300
C1321       C  0.64610835  0.97760687  0.63197909     0.29500
C1322       C  0.67437594  0.97979010  0.65360123    -0.21300
C1323       C  0.69053893  0.00166320  0.63956318    -0.09300
C1324       C  0.67754212  0.02205876  0.60366296     0.29600
F1325       F  0.69422175  0.53847444  0.59838063    -0.19800
H1326       H  0.63943528  0.53482272  0.56368020     0.17900
H1327       H  0.68410673  0.96376723  0.68112120     0.17900
F1328       F  0.63178110  0.95566364  0.64685476    -0.19800
loop_ 
_geom_bond_atom_site_label_1 
_geom_bond_atom_site_label_2 
_geom_bond_distance 
_geom_bond_site_symmetry_2 
_ccdc_geom_bond_type 
O1          Zr13   2.426       .  S
O1            C3   1.285       .  A
O2         Zr205   2.436   1_554  S
O2          C335   1.289   1_545  A
C3          O334   1.287       .  A
C3          C158   1.481       .  S
O4          Zr16   2.448       .  S
O4          C670   1.290       .  A
O5         Zr206   2.436       .  S
O5            C6   1.289       .  A
C6          O668   1.288       .  A
C6          C762   1.484       .  S
O7          Zr16   2.449       .  S
O7            C9   1.290       .  A
O8          Zr39   2.427       .  S
O8          C341   1.288   1_545  A
C9          O340   1.286       .  A
C9          C138   1.481       .  S
O10         Zr13   2.435       .  S
O10         C676   1.287       .  A
O11         Zr40   2.414       .  S
O11          C12   1.285       .  A
C12         O674   1.287       .  A
C12         C782   1.482       .  S
Zr13         O14   2.434       .  S
Zr13         O15   2.434       .  S
Zr13         O19   2.371       .  S
Zr13         O20   2.364       .  S
Zr13        O707   2.371   1_455  S
Zr13        O377   2.370       .  S
O14          H57   0.990       .  S
O15          H56   0.990       .  S
O15          H60   0.990       .  S
Zr16         O17   2.434       .  S
Zr16         O18   2.434       .  S
Zr16        O186   2.368       .  S
Zr16        O185   2.369       .  S
Zr16        O376   2.375       .  S
Zr16        O710   2.376   1_455  S
O17          H58   0.990       .  S
O17          H61   0.990       .  S
O18          H51   0.990       .  S
O19        Zr182   2.373   1_554  S
O19        Zr537   2.381   1_554  S
O20        Zr182   2.363   1_554  S
O20        Zr704   2.378   1_455  S
O20         H213   0.965       .  S
O21         Zr33   2.446       .  S
O21          C23   1.290   1_545  A
O22         Zr40   2.415       .  S
O22         C355   1.285       .  A
C23         O354   1.284       .  A
C23         C483   1.483       .  S
O24         Zr36   2.447       .  S
O24         C690   1.289       .  A
O25         Zr39   2.425       .  S
O25          C26   1.288       .  A
C26         O688   1.286   1_455  A
C26          C91   1.476   1_455  S
O27         Zr36   2.435       .  S
O27          C29   1.287   1_545  A
O28        Zr206   2.420       .  S
O28         C361   1.286       .  A
C29         O360   1.283       .  A
C29         C463   1.474       .  S
O30         Zr33   2.442       .  S
O30         C696   1.288       .  A
O31        Zr205   2.415   1_554  S
O31          C32   1.285       .  A
C32         O694   1.290   1_455  A
C32         C111   1.480       .  S
Zr33         O34   2.435       .  S
Zr33         O35   2.434       .  S
Zr33        O207   2.368   1_554  S
Zr33        O208   2.371   1_554  S
Zr33        O709   2.373       .  S
Zr33        O375   2.373   1_545  S
O34          H54   0.990       .  S
O34          H59   0.990       .  S
O35          H55   0.990       .  S
Zr36         O37   2.435       .  S
Zr36         O38   2.436       .  S
Zr36         O42   2.378       .  S
Zr36         O41   2.377       .  S
Zr36        O378   2.370   1_545  S
Zr36        O708   2.366       .  S
O37          H53   0.990       .  S
O38          H52   0.990       .  S
O38          H62   0.990       .  S
Zr39        O168   2.429       .  S
Zr39        O197   2.431       .  S
Zr39         O44   2.383       .  S
Zr39        O517   2.381   1_545  S
Zr39        O706   2.381   1_455  S
Zr39        O211   2.386       .  S
Zr40        O171   2.423   1_554  S
Zr40        O194   2.416   1_554  S
Zr40         O43   2.379       .  S
Zr40        O684   2.377       .  S
Zr40        O539   2.383   1_554  S
Zr40        O212   2.380   1_554  S
O41        Zr199   2.370       .  S
O41        Zr538   2.384   1_545  S
O41         H215   0.966       .  S
O42        Zr199   2.373       .  S
O42        Zr703   2.381       .  S
O43        Zr677   2.370       .  S
O43        Zr365   2.375       .  S
O44        Zr348   2.371   1_545  S
O44        Zr700   2.364   1_455  S
O44          H48   0.965       .  S
O45        Zr345   2.370   1_545  S
O45        Zr697   2.371   1_455  S
O45        Zr205   2.383   1_554  S
O45          H50   0.967       .  S
O46        Zr680   2.373       .  S
O46        Zr368   2.366       .  S
O46        Zr206   2.378       .  S
H47         O186   0.965       .  S
H49         O207   0.966       .  S
C63         C121   1.473       .  S
C63          N64   1.359       .  A
C63          N68   1.357       .  A
N64          C65   1.357       .  A
C65          C73   1.469       .  S
C65          N66   1.359       .  A
N66          C67   1.359       .  A
C67         C108   1.480       .  S
C67          N68   1.357       .  A
C69         C101   1.483       .  S
C69          N70   1.357       .  A
C69          N74   1.360       .  A
N70          C71   1.357   1_455  A
C71          C88   1.481       .  S
C71          N72   1.358       .  A
N72          C73   1.357   1_655  A
C73          N74   1.360       .  A
C75         C148   1.473       .  S
C75          N76   1.356       .  A
C75          N80   1.358       .  A
N76          C77   1.356       .  A
C77          C83   1.466       .  S
C77          N78   1.358       .  A
N78          C79   1.360       .  A
C79         C161   1.474       .  S
C79          N80   1.359       .  A
C81         C128   1.476       .  S
C81          N82   1.356       .  A
C81          N86   1.359       .  A
N82          C83   1.357       .  A
C83          N84   1.358       .  A
N84          C85   1.359       .  A
C85         C141   1.481       .  S
C85          N86   1.360       .  A
C87          C92   1.400       .  A
C87         C752   1.408       .  A
C87          H94   1.083       .  S
C88          C89   1.409   1_655  A
C88         C751   1.407       .  A
C89          C90   1.394       .  A
C89          F96   1.357       .  S
C90          C91   1.402   1_455  A
C90          H95   1.083       .  S
C91         C756   1.409       .  A
C92         C755   1.408       .  A
C92          F93   1.358       .  S
C97         C102   1.399       .  A
C97         C762   1.406       .  A
C97         H104   1.083       .  S
C98         C670   1.481       .  S
C98          C99   1.408   1_455  A
C98         C761   1.405       .  A
C99         C100   1.399       .  A
C99         F106   1.358       .  S
C100        C101   1.408   1_655  A
C100        H105   1.083       .  S
C101        C766   1.408       .  A
C102        C765   1.407       .  A
C102        F103   1.357       .  S
C107        C112   1.397       .  A
C107        C772   1.408       .  A
C107        H114   1.083       .  S
C108        C109   1.407   1_455  A
C108        C771   1.406       .  A
C109        C110   1.396       .  A
C109        F116   1.357       .  S
C110        C111   1.405   1_655  A
C110        H115   1.083       .  S
C111        C776   1.409       .  A
C112        C775   1.404       .  A
C112        F113   1.357       .  S
C117        C122   1.396       .  A
C117        C782   1.407       .  A
C117        H124   1.083       .  S
C118        C676   1.480       .  S
C118        C119   1.410       .  A
C118        C781   1.406   1_455  A
C119        C120   1.396       .  A
C119        F126   1.357       .  S
C120        C121   1.402       .  A
C120        H125   1.083       .  S
C121        C786   1.406   1_455  A
C122        C785   1.406       .  A
C122        F123   1.358       .  S
C127        C128   1.403       .  A
C127        C132   1.398       .  A
C127        H134   1.083       .  S
C128        C129   1.405       .  A
C129        C130   1.398       .  A
C129        F136   1.358       .  S
C130        C131   1.409       .  A
C130        H135   1.083       .  S
C131        C361   1.488       .  S
C131        C132   1.411       .  A
C132        F465   1.357       .  S
F133        C464   1.357       .  S
C137        C138   1.405       .  A
C137        C142   1.398       .  A
C137        H144   1.083       .  S
C138        C471   1.408       .  A
C139        C470   1.409   1_545  A
C139        C472   1.401       .  A
C139        F146   1.358       .  S
C140        C141   1.405       .  A
C140        C471   1.398       .  A
C140        H477   1.083       .  S
C141        C142   1.408       .  A
C142        F143   1.358       .  S
H145        C472   1.083       .  S
C147        C148   1.402       .  A
C147        C152   1.397       .  A
C147        H154   1.083       .  S
C148        C149   1.405       .  A
C149        C150   1.396       .  A
C149        F156   1.358       .  S
C150        C151   1.406       .  A
C150        H155   1.083       .  S
C151        C355   1.483       .  S
C151        C152   1.411       .  A
C152        F485   1.356       .  S
F153        C484   1.356       .  S
C157        C490   1.409   1_545  A
C157        C494   1.400       .  A
C157        H164   1.083       .  S
C158        C159   1.412       .  A
C158        C489   1.405       .  A
C159        C160   1.396       .  A
C159        F166   1.358       .  S
C160        C161   1.402       .  A
C160        H165   1.084       .  S
C161        C162   1.406       .  A
C162        C489   1.396       .  A
C162        F495   1.357       .  S
F163        C494   1.357       .  S
O167       Zr179   2.429       .  S
O167        C169   1.285       .  A
O168        C501   1.288   1_545  A
C169        O500   1.289       .  A
C169        C324   1.487       .  S
O170       Zr182   2.443       .  S
O170        C836   1.289       .  A
O171        C172   1.286       .  A
C172        O834   1.287       .  A
C172        C928   1.479       .  S
O173       Zr182   2.437       .  S
O173        C175   1.288       .  A
O174       Zr205   2.409       .  S
O174        C507   1.284   1_545  A
C175        O506   1.288       .  A
C175        C304   1.480       .  S
O176       Zr179   2.433       .  S
O176        C842   1.286       .  A
O177       Zr206   2.416       .  S
O177        C178   1.286       .  A
C178        O840   1.288       .  A
C178        C948   1.479       .  S
Zr179       O180   2.434       .  S
Zr179       O181   2.436       .  S
Zr179       O185   2.373       .  S
Zr179       O186   2.372       .  S
Zr179       O873   2.367   1_455  S
Zr179       O543   2.370       .  S
O180        H223   0.990       .  S
O181        H222   0.990       .  S
O181        H226   0.990       .  S
Zr182       O183   2.436       .  S
Zr182       O184   2.436       .  S
Zr182       O542   2.374       .  S
Zr182       O876   2.370   1_455  S
O183        H224   0.990       .  S
O183        H227   0.990       .  S
O184        H217   0.990       .  S
O185       Zr371   2.383       .  S
O186       Zr870   2.384   1_455  S
O187       Zr199   2.441       .  S
O187        C189   1.288   1_545  A
O188       Zr206   2.426       .  S
O188        C521   1.287       .  A
C189        O520   1.285       .  A
C189        C649   1.483       .  S
O190       Zr202   2.430       .  S
O190        C856   1.285       .  A
O191       Zr205   2.433       .  S
O191        C192   1.289       .  A
C192        O854   1.283   1_455  A
C192        C257   1.478       .  S
O193       Zr202   2.441       .  S
O193        C195   1.288   1_545  A
O194        C527   1.285       .  A
C195        O526   1.286       .  A
C195        C629   1.484       .  S
O196       Zr199   2.447       .  S
O196        C862   1.288       .  A
O197        C198   1.288   1_455  A
C198        O860   1.289       .  A
C198        C277   1.488       .  S
Zr199       O200   2.437       .  S
Zr199       O201   2.434       .  S
Zr199       O875   2.371       .  S
Zr199       O541   2.374   1_545  S
O200        H220   0.990       .  S
O200        H225   0.990       .  S
O201        H221   0.990       .  S
Zr202       O203   2.435       .  S
Zr202       O204   2.438       .  S
Zr202       O208   2.377       .  S
Zr202       O207   2.370       .  S
Zr202       O544   2.368   1_545  S
Zr202       O874   2.368       .  S
O203        H219   0.990       .  S
O204        H218   0.990       .  S
O204        H228   0.990       .  S
Zr205       O351   2.380   1_546  S
Zr205       O872   2.378   1_455  S
Zr205       O210   2.385       .  S
Zr206       O850   2.383       .  S
Zr206       O373   2.386       .  S
Zr206       O209   2.384       .  S
O207       Zr372   2.381   1_545  S
O208       Zr869   2.383       .  S
O209       Zr843   2.368       .  S
O209       Zr531   2.374       .  S
O210       Zr514   2.371   1_545  S
O210       Zr866   2.366   1_455  S
O210        H214   0.965       .  S
O211       Zr511   2.376   1_545  S
O211       Zr863   2.374   1_455  S
O211        H216   0.967       .  S
O212       Zr846   2.371       .  S
O212       Zr534   2.370       .  S
C229        C287   1.473       .  S
C229        N230   1.358       .  A
C229        N234   1.357       .  A
N230        C231   1.358   1_455  A
C231        C239   1.467       .  S
C231        N232   1.358       .  A
N232        C233   1.359   1_655  A
C233        C274   1.474   1_455  S
C233        N234   1.356       .  A
C235        C267   1.482       .  S
C235        N236   1.357       .  A
C235        N240   1.358       .  A
N236        C237   1.358       .  A
C237        C254   1.476       .  S
C237        N238   1.359       .  A
N238        C239   1.357       .  A
C239        N240   1.357       .  A
C241        C314   1.481       .  S
C241        N242   1.359       .  A
C241        N246   1.356       .  A
N242        C243   1.361       .  A
C243        C249   1.469       .  S
C243        N244   1.358       .  A
N244        C245   1.358       .  A
C245        C327   1.472       .  S
C245        N246   1.354       .  A
C247        C294   1.480       .  S
C247        N248   1.357       .  A
C247        N252   1.358       .  A
N248        C249   1.355       .  A
C249        N250   1.359       .  A
N250        C251   1.361       .  A
C251        C307   1.479       .  S
C251        N252   1.358       .  A
C253        C918   1.403       .  A
C253        C258   1.397       .  A
C253        H260   1.083       .  S
C254        C917   1.403       .  A
C254        C255   1.408   1_655  A
C255        C256   1.395       .  A
C255        F262   1.357       .  S
C256        C257   1.403       .  A
C256        H261   1.083       .  S
C257        C922   1.411   1_455  A
C258        C921   1.411       .  A
C258        F259   1.358       .  S
C263        C928   1.405       .  A
C263        C268   1.395       .  A
C263        H270   1.083       .  S
C264        C836   1.475       .  S
C264        C927   1.402       .  A
C264        C265   1.408   1_455  A
C265        C266   1.399       .  A
C265        F272   1.358       .  S
C266        C267   1.407       .  A
C266        H271   1.083       .  S
C267        C932   1.409   1_655  A
C268        C931   1.406       .  A
C268        F269   1.357       .  S
C273        C938   1.408       .  A
C273        C278   1.397       .  A
C273        H280   1.083       .  S
C274        C937   1.404   1_655  A
C274        C275   1.403       .  A
C275        C276   1.397       .  A
C275        F282   1.358       .  S
C276        C277   1.409       .  A
C276        H281   1.083       .  S
C277        C942   1.411   1_655  A
C278        C941   1.402       .  A
C278        F279   1.357       .  S
C283        C948   1.406       .  A
C283        C288   1.397       .  A
C283        H290   1.083       .  S
C284        C842   1.481       .  S
C284        C947   1.405   1_455  A
C284        C285   1.411       .  A
C285        C286   1.397       .  A
C285        F292   1.358       .  S
C286        C287   1.402       .  A
C286        H291   1.083       .  S
C287        C952   1.406   1_455  A
C288        C951   1.408       .  A
C288        F289   1.357       .  S
C293        C294   1.405       .  A
C293        C298   1.397       .  A
C293        H300   1.083       .  S
C294        C295   1.409       .  A
C295        C296   1.395       .  A
C295        F302   1.357       .  S
C296        C297   1.403       .  A
C296        H301   1.083       .  S
C297        C527   1.477       .  S
C297        C298   1.407       .  A
C298        F631   1.356       .  S
F299        C630   1.356       .  S
C303        C304   1.406       .  A
C303        C308   1.398       .  A
C303        H310   1.083       .  S
C304        C637   1.407       .  A
C305        C636   1.409   1_545  A
C305        C638   1.396       .  A
C305        F312   1.358       .  S
C306        C637   1.398       .  A
C306        C307   1.406       .  A
C306        H643   1.083       .  S
C307        C308   1.406       .  A
C308        F309   1.358       .  S
H311        C638   1.083       .  S
C313        C314   1.406       .  A
C313        C318   1.395       .  A
C313        H320   1.083       .  S
C314        C315   1.408       .  A
C315        C316   1.399       .  A
C315        F322   1.358       .  S
C316        C317   1.407       .  A
C316        H321   1.083       .  S
C317        C521   1.478       .  S
C317        C318   1.405       .  A
C318        F651   1.357       .  S
F319        C650   1.357       .  S
C323        C656   1.408   1_545  A
C323        C660   1.399       .  A
C323        H330   1.083       .  S
C324        C655   1.406       .  A
C324        C325   1.414       .  A
C325        C326   1.396       .  A
C325        F332   1.358       .  S
C326        C327   1.400       .  A
C326        H331   1.084       .  S
C327        C328   1.406       .  A
C328        C655   1.397       .  A
C328        F661   1.358       .  S
F329        C660   1.358       .  S
O333       Zr345   2.434       .  S
O333        C335   1.286       .  A
O334       Zr537   2.423   1_554  S
C335        C490   1.491       .  S
O336       Zr348   2.455       .  S
O336       C1002   1.291       .  A
O337       Zr538   2.411       .  S
O337        C338   1.284       .  A
C338       O1000   1.287       .  A
C338       C1094   1.474       .  S
O339       Zr348   2.448       .  S
O339        C341   1.290       .  A
O340       Zr371   2.421       .  S
C341        C470   1.485       .  S
O342       Zr345   2.441       .  S
O342       C1008   1.288       .  A
O343       Zr372   2.419   1_554  S
O343        C344   1.286       .  A
C344       O1006   1.288       .  A
C344       C1114   1.484       .  S
Zr345       O346   2.434       .  S
Zr345       O347   2.435       .  S
Zr345       O351   2.373       .  S
Zr345       O352   2.372       .  S
Zr345      O1039   2.369   1_455  S
O346        H389   0.990       .  S
O347        H388   0.990       .  S
O347        H392   0.990       .  S
Zr348       O349   2.434       .  S
Zr348       O350   2.435       .  S
Zr348       O518   2.373       .  S
Zr348       O517   2.372       .  S
Zr348      O1042   2.369   1_455  S
O349        H390   0.990       .  S
O349        H393   0.990       .  S
O350        H383   0.990       .  S
O351       Zr514   2.368   1_554  S
O352       Zr514   2.368   1_554  S
O352      Zr1036   2.385   1_455  S
O352        H545   0.965       .  S
O353       Zr365   2.444       .  S
O353        C355   1.289       .  A
O354       Zr372   2.413   1_554  S
O356       Zr368   2.439       .  S
O356       C1022   1.288       .  A
O357       Zr371   2.427       .  S
O357        C358   1.288       .  A
C358       O1020   1.288   1_455  A
C358        C423   1.481       .  S
O359       Zr368   2.443       .  S
O359        C361   1.289       .  A
O360       Zr538   2.407       .  S
O362       Zr365   2.444       .  S
O362       C1028   1.289       .  A
O363       Zr537   2.431   1_554  S
O363        C364   1.288       .  A
C364       O1026   1.288   1_455  A
C364        C443   1.490       .  S
Zr365       O366   2.437       .  S
Zr365       O367   2.435       .  S
Zr365       O539   2.370   1_554  S
Zr365       O540   2.373   1_554  S
Zr365      O1041   2.372       .  S
O366        H386   0.990       .  S
O366        H391   0.990       .  S
O367        H387   0.990       .  S
Zr368       O369   2.435       .  S
Zr368       O370   2.433       .  S
Zr368       O374   2.377       .  S
Zr368       O373   2.372       .  S
Zr368      O1040   2.367       .  S
O369        H385   0.990       .  S
O370        H384   0.990       .  S
O370        H394   0.990       .  S
Zr371       O500   2.432       .  S
Zr371       O529   2.432       .  S
Zr371      O1038   2.384   1_455  S
Zr371       O376   2.388       .  S
Zr371       O543   2.385       .  S
Zr372       O503   2.409       .  S
Zr372       O526   2.421       .  S
Zr372      O1016   2.382   1_556  S
Zr372       O375   2.379   1_556  S
Zr372       O544   2.381       .  S
O373       Zr531   2.372       .  S
O373        H547   0.966       .  S
O374       Zr531   2.369       .  S
O374      Zr1035   2.384       .  S
O375      Zr1009   2.372       .  S
O376      Zr1032   2.365   1_455  S
O376        H380   0.965       .  S
O377      Zr1029   2.369   1_455  S
O377       Zr537   2.382   1_554  S
O377        H382   0.966       .  S
O378      Zr1012   2.368       .  S
O378       Zr538   2.379       .  S
H379        O518   0.965       .  S
H381        O539   0.966       .  S
C395        C453   1.476   1_655  S
C395        N396   1.359       .  A
C395        N400   1.357   1_655  A
N396        C397   1.358       .  A
C397        C405   1.471       .  S
C397        N398   1.359       .  A
N398        C399   1.359       .  A
C399        C440   1.470       .  S
C399        N400   1.356   1_655  A
C401        C433   1.487   1_655  S
C401        N402   1.360       .  A
C401        N406   1.359       .  A
N402        C403   1.360       .  A
C403        C420   1.486   1_655  S
C403        N404   1.360       .  A
N404        C405   1.358       .  A
C405        N406   1.358       .  A
C407        C480   1.478       .  S
C407        N408   1.357       .  A
C407        N412   1.360       .  A
N408        C409   1.358       .  A
C409        C415   1.465       .  S
C409        N410   1.357       .  A
N410        C411   1.357       .  A
C411        C493   1.472       .  S
C411        N412   1.359       .  A
C413        C460   1.476       .  S
C413        N414   1.355       .  A
C413        N418   1.361       .  A
N414        C415   1.353       .  A
C415        N416   1.357       .  A
N416        C417   1.360       .  A
C417        C473   1.481       .  S
C417        N418   1.360       .  A
C419       C1084   1.405       .  A
C419        C424   1.398       .  A
C419        H426   1.083       .  S
C420       C1083   1.406   1_455  A
C420        C421   1.411       .  A
C421        C422   1.399       .  A
C421        F428   1.357       .  S
C422        C423   1.404       .  A
C422        H427   1.083       .  S
C423       C1088   1.408   1_455  A
C424       C1087   1.410       .  A
C424        F425   1.358       .  S
C429       C1094   1.403       .  A
C429        C434   1.395       .  A
C429        H436   1.083       .  S
C430       C1002   1.481       .  S
C430       C1093   1.404       .  A
C430        C431   1.408   1_455  A
C431        C432   1.400       .  A
C431        F438   1.358       .  S
C432        C433   1.407   1_655  A
C432        H437   1.083       .  S
C433       C1098   1.410       .  A
C434       C1097   1.408       .  A
C434        F435   1.357       .  S
C439       C1104   1.401       .  A
C439        C444   1.399       .  A
C439        H446   1.084       .  S
C440       C1103   1.402   1_655  A
C440        C441   1.400       .  A
C441        C442   1.397       .  A
C441        F448   1.358       .  S
C442        C443   1.411   1_655  A
C442        H447   1.083       .  S
C443       C1108   1.413       .  A
C444       C1107   1.413       .  A
C444        F445   1.357       .  S
C449       C1114   1.407       .  A
C449        C454   1.397       .  A
C449        H456   1.083       .  S
C450       C1008   1.478       .  S
C450       C1113   1.406   1_455  A
C450        C451   1.408       .  A
C451        C452   1.397       .  A
C451        F458   1.358       .  S
C452        C453   1.404       .  A
C452        H457   1.083       .  S
C453       C1118   1.407   1_455  A
C454       C1117   1.407       .  A
C454        F455   1.358       .  S
C459        C460   1.403       .  A
C459        C464   1.395       .  A
C459        H466   1.083       .  S
C460        C461   1.409       .  A
C461        C462   1.393       .  A
C461        F468   1.358   1_565  S
C462        C463   1.403       .  A
C462        H467   1.084   1_565  S
C463        C464   1.408       .  A
C469        C470   1.406       .  A
C469        C474   1.398       .  A
C469        H476   1.083       .  S
C471        F478   1.358       .  S
C472        C473   1.405   1_545  A
C473        C474   1.407       .  A
C474        F475   1.358       .  S
C479        C480   1.403       .  A
C479        C484   1.397       .  A
C479        H486   1.083       .  S
C480        C481   1.407   1_565  A
C481        C482   1.398       .  A
C481        F488   1.357       .  S
C482        C483   1.406   1_545  A
C482        H487   1.083       .  S
C483        C484   1.410       .  A
C489        H496   1.083       .  S
C490        C491   1.415       .  A
C491        C492   1.397       .  A
C491        F498   1.358       .  S
C492        C493   1.400       .  A
C492        H497   1.084       .  S
C493        C494   1.403   1_565  A
O499       Zr511   2.428       .  S
O499        C501   1.285       .  A
C501        C656   1.486       .  S
O502       Zr514   2.443       .  S
O502       C1168   1.289       .  A
O503        C504   1.284       .  A
C504       O1166   1.290       .  A
C504       C1260   1.478       .  S
O505       Zr514   2.443       .  S
O505        C507   1.289       .  A
O506       Zr537   2.429       .  S
C507        C636   1.478       .  S
O508       Zr511   2.442       .  S
O508       C1174   1.288       .  A
O509       Zr538   2.414       .  S
O509        C510   1.285       .  A
C510       O1172   1.289       .  A
C510       C1280   1.484       .  S
Zr511       O512   2.434       .  S
Zr511       O513   2.436       .  S
Zr511       O517   2.372       .  S
Zr511       O518   2.370       .  S
Zr511      O1205   2.368   1_455  S
O512        H555   0.990       .  S
O513        H554   0.990       .  S
O513        H558   0.990       .  S
Zr514       O515   2.434       .  S
Zr514       O516   2.434       .  S
Zr514      O1208   2.373   1_455  S
O515        H556   0.990       .  S
O515        H559   0.991       .  S
O516        H549   0.990       .  S
O518      Zr1202   2.380   1_455  S
O519       Zr531   2.434       .  S
O519        C521   1.287       .  A
O520       Zr538   2.415       .  S
O522       Zr534   2.430       .  S
O522       C1188   1.286       .  A
O523       Zr537   2.424       .  S
O523        C524   1.287       .  A
C524       O1186   1.287   1_455  A
C524        C589   1.478       .  S
O525       Zr534   2.437       .  S
O525        C527   1.288       .  A
O528       Zr531   2.440       .  S
O528       C1194   1.288       .  A
O529        C530   1.288   1_455  A
C530       O1192   1.288       .  A
C530        C609   1.486       .  S
Zr531       O532   2.436       .  S
Zr531       O533   2.436       .  S
Zr531      O1207   2.370       .  S
O532        H552   0.990       .  S
O532        H557   0.990       .  S
O533        H553   0.990       .  S
Zr534       O535   2.435       .  S
Zr534       O536   2.435       .  S
Zr534       O540   2.377       .  S
Zr534       O539   2.369       .  S
Zr534      O1206   2.370       .  S
O535        H551   0.990       .  S
O536        H550   0.990       .  S
O536        H560   0.990       .  S
Zr537      O1204   2.381   1_455  S
Zr537       O542   2.383       .  S
Zr538      O1182   2.376       .  S
Zr538       O541   2.374       .  S
O540      Zr1201   2.384       .  S
O541      Zr1175   2.370       .  S
O542      Zr1198   2.366   1_455  S
O542        H546   0.965       .  S
O543      Zr1195   2.373   1_455  S
O543        H548   0.967       .  S
O544      Zr1178   2.375       .  S
C561        C619   1.476       .  S
C561        N562   1.356       .  A
C561        N566   1.359       .  A
N562        C563   1.356       .  A
C563        C571   1.467       .  S
C563        N564   1.360       .  A
N564        C565   1.361       .  A
C565        C606   1.481   1_455  S
C565        N566   1.358       .  A
C567        C599   1.482       .  S
C567        N568   1.357       .  A
C567        N572   1.357       .  A
N568        C569   1.358       .  A
C569        C586   1.478       .  S
C569        N570   1.359       .  A
N570        C571   1.357       .  A
C571        N572   1.357       .  A
C573        C646   1.473       .  S
C573        N574   1.358       .  A
C573        N578   1.357       .  A
N574        C575   1.358       .  A
C575        C581   1.467       .  S
C575        N576   1.357       .  A
N576        C577   1.358       .  A
C577        C659   1.470       .  S
C577        N578   1.357       .  A
C579        C626   1.479       .  S
C579        N580   1.356       .  A
C579        N584   1.359       .  A
N580        C581   1.355       .  A
C581        N582   1.358       .  A
N582        C583   1.359       .  A
C583        C639   1.476       .  S
C583        N584   1.360       .  A
C585       C1250   1.405       .  A
C585        C590   1.398       .  A
C585        H592   1.083       .  S
C586       C1249   1.405   1_455  A
C586        C587   1.408       .  A
C587        C588   1.395       .  A
C587        F594   1.357       .  S
C588        C589   1.404       .  A
C588        H593   1.083       .  S
C589       C1254   1.409   1_455  A
C590       C1253   1.411       .  A
C590        F591   1.358       .  S
C595       C1260   1.403       .  A
C595        C600   1.396       .  A
C595        H602   1.083       .  S
C596       C1168   1.476       .  S
C596       C1259   1.403       .  A
C596        C597   1.407   1_455  A
C597        C598   1.398       .  A
C597        F604   1.358       .  S
C598        C599   1.407   1_655  A
C598        H603   1.083       .  S
C599       C1264   1.409       .  A
C600       C1263   1.408       .  A
C600        F601   1.357       .  S
C605       C1270   1.409       .  A
C605        C610   1.397       .  A
C605        H612   1.083       .  S
C606       C1269   1.406   1_655  A
C606        C607   1.405       .  A
C607        C608   1.398       .  A
C607        F614   1.358       .  S
C608        C609   1.408       .  A
C608        H613   1.083       .  S
C609       C1274   1.409   1_655  A
C610       C1273   1.403       .  A
C610        F611   1.357       .  S
C615       C1280   1.407       .  A
C615        C620   1.397       .  A
C615        H622   1.083       .  S
C616       C1174   1.482       .  S
C616       C1279   1.406   1_455  A
C616        C617   1.410       .  A
C617        C618   1.400       .  A
C617        F624   1.358       .  S
C618        C619   1.406       .  A
C618        H623   1.083       .  S
C619       C1284   1.404   1_455  A
C620       C1283   1.407       .  A
C620        F621   1.358       .  S
C625        C626   1.404       .  A
C625        C630   1.398       .  A
C625        H632   1.083       .  S
C626        C627   1.408   1_565  A
C627        C628   1.396       .  A
C627        F634   1.358       .  S
C628        C629   1.405   1_545  A
C628        H633   1.083       .  S
C629        C630   1.410       .  A
C635        C636   1.405       .  A
C635        C640   1.396       .  A
C635        H642   1.083       .  S
C637        F644   1.358       .  S
C638        C639   1.404   1_545  A
C639        C640   1.406       .  A
C640        F641   1.357       .  S
C645        C646   1.403       .  A
C645        C650   1.397       .  A
C645        H652   1.083       .  S
C646        C647   1.404   1_565  A
C647        C648   1.396       .  A
C647        F654   1.357       .  S
C648        C649   1.407   1_545  A
C648        H653   1.083       .  S
C649        C650   1.410       .  A
C655        H662   1.083       .  S
C656        C657   1.414       .  A
C657        C658   1.394       .  A
C657        F664   1.358       .  S
C658        C659   1.399       .  A
C658        H663   1.084       .  S
C659        C660   1.405   1_565  A
O665       Zr677   2.429       .  S
O665        C667   1.285       .  A
O666       Zr869   2.440   1_554  S
O666        C999   1.290   1_545  A
C667        O998   1.289       .  A
C667        C822   1.487       .  S
O668       Zr680   2.437       .  S
O669       Zr870   2.418       .  S
O669        C670   1.285   1_655  A
O671       Zr680   2.437       .  S
O671        C673   1.288       .  A
O672       Zr703   2.417       .  S
O672       C1005   1.285   1_545  A
C673       O1004   1.285       .  A
C673        C802   1.477       .  S
O674       Zr677   2.434       .  S
O675       Zr704   2.416       .  S
O675        C676   1.286   1_655  A
Zr677       O678   2.435       .  S
Zr677       O679   2.437       .  S
Zr677       O683   2.371       .  S
Zr677       O684   2.364       .  S
Zr677      O1041   2.371       .  S
O678        H721   0.990       .  S
O679        H720   0.990       .  S
O679        H724   0.990       .  S
Zr680       O681   2.436       .  S
Zr680       O682   2.432       .  S
Zr680       O850   2.366       .  S
Zr680       O849   2.367       .  S
Zr680      O1040   2.372       .  S
O681        H722   0.990       .  S
O681        H725   0.991       .  S
O682        H715   0.990       .  S
O683       Zr846   2.374   1_554  S
O683      Zr1201   2.381   1_554  S
O684       Zr846   2.367   1_554  S
O684        H877   0.965       .  S
O685       Zr697   2.446       .  S
O685        C687   1.290   1_545  A
O686       Zr704   2.414       .  S
O686       C1019   1.285       .  A
C687       O1018   1.285       .  A
C687       C1147   1.485       .  S
O688       Zr700   2.432       .  S
O689       Zr703   2.415       .  S
O689        C690   1.286       .  A
C690        C755   1.480       .  S
O691       Zr700   2.437       .  S
O691        C693   1.288   1_545  A
O692       Zr870   2.426       .  S
O692       C1025   1.287       .  A
C693       O1024   1.285       .  A
C693       C1127   1.474       .  S
O694       Zr697   2.446       .  S
O695       Zr869   2.415   1_554  S
O695        C696   1.285       .  A
C696        C775   1.473       .  S
Zr697       O698   2.437       .  S
Zr697       O699   2.433       .  S
Zr697       O871   2.373   1_554  S
Zr697       O872   2.369   1_554  S
Zr697      O1039   2.371   1_545  S
O698        H718   0.990       .  S
O698        H723   0.990       .  S
O699        H719   0.990       .  S
Zr700       O701   2.435       .  S
Zr700       O702   2.434       .  S
Zr700       O706   2.377       .  S
Zr700       O705   2.370       .  S
Zr700      O1042   2.364   1_545  S
O701        H717   0.990       .  S
O702        H716   0.990       .  S
O702        H726   0.990       .  S
Zr703       O832   2.422       .  S
Zr703       O861   2.421       .  S
Zr703      O1181   2.379   1_545  S
Zr703       O708   2.384       .  S
Zr703       O875   2.380       .  S
Zr704       O835   2.413   1_554  S
Zr704       O858   2.415   1_554  S
Zr704      O1203   2.384   1_554  S
Zr704       O707   2.377       .  S
Zr704       O876   2.378   1_554  S
O705       Zr863   2.368       .  S
O705      Zr1202   2.381   1_545  S
O705        H879   0.966       .  S
O706       Zr863   2.369       .  S
O707      Zr1029   2.373       .  S
O708      Zr1012   2.372   1_545  S
O708        H712   0.965       .  S
O709      Zr1009   2.369   1_545  S
O709       Zr869   2.381   1_554  S
O709        H714   0.967       .  S
O710      Zr1032   2.369       .  S
O710       Zr870   2.382       .  S
H711        O850   0.965       .  S
H713        O871   0.966       .  S
C727        C785   1.474       .  S
C727        N728   1.358       .  A
C727        N732   1.357       .  A
N728        C729   1.356       .  A
C729        C737   1.470       .  S
C729        N730   1.360       .  A
N730        C731   1.360       .  A
C731        C772   1.484       .  S
C731        N732   1.358       .  A
C733        C765   1.487       .  S
C733        N734   1.358       .  A
C733        N738   1.362       .  A
N734        C735   1.359       .  A
C735        C752   1.481       .  S
C735        N736   1.357       .  A
N736        C737   1.356       .  A
C737        N738   1.361       .  A
C739        C812   1.472       .  S
C739        N740   1.356       .  A
C739        N744   1.356       .  A
N740        C741   1.357       .  A
C741        C747   1.466       .  S
C741        N742   1.359       .  A
N742        C743   1.360       .  A
C743        C825   1.472       .  S
C743        N744   1.356       .  A
C745        C792   1.478       .  S
C745        N746   1.356       .  A
C745        N750   1.358       .  A
N746        C747   1.356       .  A
C747        N748   1.358       .  A
N748        C749   1.360       .  A
C749        C805   1.476       .  S
C749        N750   1.359       .  A
C751        C756   1.398       .  A
C751        H758   1.083       .  S
C752        C753   1.407       .  A
C753        C754   1.394       .  A
C753        F760   1.357       .  S
C754        C755   1.405       .  A
C754        H759   1.083       .  S
C756        F757   1.358       .  S
C761        C766   1.397       .  A
C761        H768   1.083       .  S
C762        C763   1.407       .  A
C763        C764   1.402       .  A
C763        F770   1.357       .  S
C764        C765   1.409       .  A
C764        H769   1.083       .  S
C766        F767   1.357       .  S
C771        C776   1.399       .  A
C771        H778   1.083       .  S
C772        C773   1.410       .  A
C773        C774   1.397       .  A
C773        F780   1.357       .  S
C774        C775   1.403       .  A
C774        H779   1.084       .  S
C776        F777   1.358       .  S
C781        C786   1.396       .  A
C781        H788   1.083       .  S
C782        C783   1.410       .  A
C783        C784   1.395       .  A
C783        F790   1.357       .  S
C784        C785   1.402       .  A
C784        H789   1.083       .  S
C786        F787   1.358       .  S
C791        C792   1.404       .  A
C791        C796   1.398       .  A
C791        H798   1.083       .  S
C792        C793   1.407       .  A
C793        C794   1.397       .  A
C793        F800   1.358       .  S
C794        C795   1.408       .  A
C794        H799   1.083       .  S
C795       C1025   1.486       .  S
C795        C796   1.410       .  A
C796       F1129   1.357       .  S
F797       C1128   1.355       .  S
C801        C802   1.406       .  A
C801        C806   1.396       .  A
C801        H808   1.083       .  S
C802       C1135   1.408       .  A
C803       C1134   1.408   1_545  A
C803       C1136   1.396       .  A
C803        F810   1.358       .  S
C804       C1135   1.396       .  A
C804        C805   1.405       .  A
C804       H1141   1.083       .  S
C805        C806   1.406       .  A
C806        F807   1.357       .  S
H809       C1136   1.083       .  S
C811        C812   1.402       .  A
C811        C816   1.396       .  A
C811        H818   1.084       .  S
C812        C813   1.404       .  A
C813        C814   1.397       .  A
C813        F820   1.358       .  S
C814        C815   1.407       .  A
C814        H819   1.083       .  S
C815       C1019   1.482       .  S
C815        C816   1.410       .  A
C816       F1149   1.357       .  S
F817       C1148   1.357       .  S
C821       C1154   1.408   1_545  A
C821       C1158   1.402       .  A
C821        H828   1.083       .  S
C822       C1153   1.407       .  A
C822        C823   1.414       .  A
C823        C824   1.396       .  A
C823        F830   1.357       .  S
C824        C825   1.400       .  A
C824        H829   1.084       .  S
C825        C826   1.406       .  A
C826       C1153   1.398       .  A
C826       F1159   1.358       .  S
F827       C1158   1.357       .  S
O831       Zr843   2.429       .  S
O831        C833   1.285       .  A
O832       C1165   1.287   1_545  A
C833       O1164   1.288       .  A
C833        C988   1.486       .  S
O834       Zr846   2.438       .  S
O835        C836   1.284   1_655  A
O837       Zr846   2.439       .  S
O837        C839   1.288       .  A
O838       Zr869   2.416       .  S
O838       C1171   1.285   1_545  A
C839       O1170   1.288       .  A
C839        C968   1.482       .  S
O840       Zr843   2.437       .  S
O841       Zr870   2.421       .  S
O841        C842   1.287   1_655  A
Zr843       O844   2.434       .  S
Zr843       O845   2.439       .  S
Zr843       O849   2.373       .  S
Zr843       O850   2.371       .  S
Zr843      O1207   2.368       .  S
O844        H887   0.990       .  S
O845        H886   0.990       .  S
O845        H890   0.990       .  S
Zr846       O847   2.437       .  S
Zr846       O848   2.435       .  S
Zr846      O1206   2.370       .  S
O847        H888   0.990       .  S
O847        H891   0.991       .  S
O848        H881   0.990       .  S
O849      Zr1035   2.379       .  S
O851       Zr863   2.436       .  S
O851        C853   1.288   1_545  A
O852       Zr870   2.418       .  S
O852       C1185   1.286       .  A
C853       O1184   1.285       .  A
C853       C1313   1.479       .  S
O854       Zr866   2.417       .  S
O855       Zr869   2.427       .  S
O855        C856   1.288       .  A
C856        C921   1.480       .  S
O857       Zr866   2.433       .  S
O857        C859   1.287   1_545  A
O858       C1191   1.285       .  A
C859       O1190   1.286       .  A
C859       C1293   1.484       .  S
O860       Zr863   2.443       .  S
O861        C862   1.286       .  A
C862        C941   1.471       .  S
Zr863       O864   2.439       .  S
Zr863       O865   2.433       .  S
Zr863      O1205   2.374   1_545  S
O864        H884   0.990       .  S
O864        H889   0.990       .  S
O865        H885   0.990       .  S
Zr866       O867   2.434       .  S
Zr866       O868   2.436       .  S
Zr866       O872   2.376       .  S
Zr866       O871   2.370       .  S
Zr866      O1208   2.363   1_545  S
O867        H883   0.990       .  S
O868        H882   0.990       .  S
O868        H892   0.990       .  S
Zr869      O1015   2.379   1_546  S
Zr869       O874   2.386       .  S
Zr870      O1037   2.383       .  S
Zr870       O873   2.379       .  S
O871      Zr1036   2.379   1_546  S
O873      Zr1195   2.371       .  S
O874      Zr1178   2.373   1_545  S
O874        H878   0.965       .  S
O875      Zr1175   2.368   1_545  S
O875        H880   0.966       .  S
O876      Zr1198   2.369       .  S
C893        C951   1.479       .  S
C893        N894   1.358       .  A
C893        N898   1.359       .  A
N894        C895   1.355       .  A
C895        C903   1.467       .  S
C895        N896   1.358       .  A
N896        C897   1.359       .  A
C897        C938   1.488       .  S
C897        N898   1.360       .  A
C899        C931   1.480       .  S
C899        N900   1.356       .  A
C899        N904   1.360       .  A
N900        C901   1.356       .  A
C901        C918   1.475       .  S
C901        N902   1.357       .  A
N902        C903   1.357       .  A
C903        N904   1.359       .  A
C905        C978   1.476       .  S
C905        N906   1.360       .  A
C905        N910   1.357       .  A
N906        C907   1.361       .  A
C907        C913   1.468       .  S
C907        N908   1.357       .  A
N908        C909   1.356       .  A
C909        C991   1.469       .  S
C909        N910   1.356       .  A
C911        C958   1.469       .  S
C911        N912   1.357       .  A
C911        N916   1.357       .  A
N912        C913   1.355       .  A
C913        N914   1.359       .  A
N914        C915   1.360       .  A
C915        C971   1.480       .  S
C915        N916   1.357       .  A
C917        C922   1.397       .  A
C917        H924   1.083       .  S
C918        C919   1.406       .  A
C919        C920   1.394       .  A
C919        F926   1.357       .  S
C920        C921   1.404       .  A
C920        H925   1.082       .  S
C922        F923   1.358       .  S
C927        C932   1.394       .  A
C927        H934   1.083       .  S
C928        C929   1.407       .  A
C929        C930   1.399       .  A
C929        F936   1.358       .  S
C930        C931   1.407       .  A
C930        H935   1.083       .  S
C932        F933   1.357       .  S
C937        C942   1.399       .  A
C937        H944   1.084       .  S
C938        C939   1.413       .  A
C939        C940   1.399       .  A
C939        F946   1.358       .  S
C940        C941   1.402       .  A
C940        H945   1.084       .  S
C942        F943   1.357       .  S
C947        C952   1.394       .  A
C947        H954   1.083       .  S
C948        C949   1.408       .  A
C949        C950   1.395       .  A
C949        F956   1.358       .  S
C950        C951   1.405       .  A
C950        H955   1.083       .  S
C952        F953   1.358       .  S
C957        C958   1.402       .  A
C957        C962   1.396       .  A
C957        H964   1.083       .  S
C958        C959   1.403       .  A
C959        C960   1.394       .  A
C959        F966   1.358       .  S
C960        C961   1.407       .  A
C960        H965   1.083       .  S
C961       C1191   1.479       .  S
C961        C962   1.410       .  A
C962       F1295   1.357       .  S
F963       C1294   1.357       .  S
C967        C968   1.406       .  A
C967        C972   1.398       .  A
C967        H974   1.083       .  S
C968       C1301   1.408       .  A
C969       C1300   1.409   1_545  A
C969       C1302   1.397       .  A
C969        F976   1.358       .  S
C970       C1301   1.399       .  A
C970        C971   1.406       .  A
C970       H1307   1.083       .  S
C971        C972   1.406       .  A
C972        F973   1.357       .  S
H975       C1302   1.083       .  S
C977        C978   1.403       .  A
C977        C982   1.397       .  A
C977        H984   1.083       .  S
C978        C979   1.404       .  A
C979        C980   1.398       .  A
C979        F986   1.357       .  S
C980        C981   1.408       .  A
C980        H985   1.083       .  S
C981       C1185   1.485       .  S
C981        C982   1.410       .  A
C982       F1315   1.357       .  S
F983       C1314   1.355       .  S
C987       C1320   1.409   1_545  A
C987       C1324   1.400       .  A
C987        H994   1.083       .  S
C988       C1319   1.407       .  A
C988        C989   1.415       .  A
C989        C990   1.396       .  A
C989        F996   1.358       .  S
C990        C991   1.399       .  A
C990        H995   1.084       .  S
C991        C992   1.403       .  A
C992       C1319   1.397       .  A
C992       F1325   1.358       .  S
F993       C1324   1.358       .  S
O997      Zr1009   2.437       .  S
O997        C999   1.287       .  A
O998      Zr1201   2.435   1_554  S
C999       C1154   1.492       .  S
O1000     Zr1012   2.436       .  S
O1001     Zr1202   2.414       .  S
O1001      C1002   1.285   1_655  A
O1003     Zr1012   2.434       .  S
O1003      C1005   1.287       .  A
O1004     Zr1035   2.417       .  S
C1005      C1134   1.476       .  S
O1006     Zr1009   2.441       .  S
O1007     Zr1036   2.408       .  S
O1007      C1008   1.284   1_655  A
Zr1009     O1010   2.435       .  S
Zr1009     O1011   2.436       .  S
Zr1009     O1015   2.375       .  S
Zr1009     O1016   2.372       .  S
O1010      H1053   0.990       .  S
O1011      H1052   0.990       .  S
O1011      H1056   0.990       .  S
Zr1012     O1013   2.434       .  S
Zr1012     O1014   2.435       .  S
Zr1012     O1182   2.366       .  S
Zr1012     O1181   2.370       .  S
O1013      H1054   0.990       .  S
O1013      H1057   0.990       .  S
O1014      H1047   0.990       .  S
O1015     Zr1178   2.370   1_554  S
O1016     Zr1178   2.369   1_554  S
O1016      H1209   0.965       .  S
O1017     Zr1029   2.443       .  S
O1017      C1019   1.289       .  A
O1018     Zr1036   2.416       .  S
O1020     Zr1032   2.438       .  S
O1021     Zr1035   2.426       .  S
O1021      C1022   1.288       .  A
C1022      C1087   1.484       .  S
O1023     Zr1032   2.441       .  S
O1023      C1025   1.288       .  A
O1024     Zr1202   2.414       .  S
O1026     Zr1029   2.439       .  S
O1027     Zr1201   2.431   1_554  S
O1027      C1028   1.288       .  A
C1028      C1107   1.491       .  S
Zr1029     O1030   2.437       .  S
Zr1029     O1031   2.434       .  S
Zr1029     O1203   2.369   1_554  S
Zr1029     O1204   2.372   1_554  S
O1030      H1050   0.990       .  S
O1030      H1055   0.990       .  S
O1031      H1051   0.990       .  S
Zr1032     O1033   2.435       .  S
Zr1032     O1034   2.435       .  S
Zr1032     O1038   2.377       .  S
Zr1032     O1037   2.371       .  S
O1033      H1049   0.990       .  S
O1034      H1048   0.990       .  S
O1034      H1058   0.990       .  S
Zr1035     O1164   2.429       .  S
Zr1035     O1193   2.417       .  S
Zr1035     O1040   2.385       .  S
Zr1035     O1207   2.386       .  S
Zr1036     O1167   2.412   1_554  S
Zr1036     O1190   2.425   1_554  S
Zr1036     O1039   2.379       .  S
Zr1036     O1208   2.377   1_554  S
O1037     Zr1195   2.369       .  S
O1037      H1211   0.966       .  S
O1038     Zr1195   2.372       .  S
O1040      H1044   0.965       .  S
O1041     Zr1201   2.384   1_554  S
O1041      H1046   0.967       .  S
O1042     Zr1202   2.376       .  S
H1043      O1182   0.964       .  S
H1045      O1203   0.966       .  S
C1059      C1117   1.478       .  S
C1059      N1060   1.360       .  A
C1059      N1064   1.358       .  A
N1060      C1061   1.360       .  A
C1061      C1069   1.471       .  S
C1061      N1062   1.359       .  A
N1062      C1063   1.358       .  A
C1063      C1104   1.469       .  S
C1063      N1064   1.356       .  A
C1065      C1097   1.480       .  S
C1065      N1066   1.358       .  A
C1065      N1070   1.359       .  A
N1066      C1067   1.358       .  A
C1067      C1084   1.482       .  S
C1067      N1068   1.360       .  A
N1068      C1069   1.359       .  A
C1069      N1070   1.357       .  A
C1071      C1144   1.476       .  S
C1071      N1072   1.357       .  A
C1071      N1076   1.359       .  A
N1072      C1073   1.357       .  A
C1073      C1079   1.467       .  S
C1073      N1074   1.358       .  A
N1074      C1075   1.360       .  A
C1075      C1157   1.479       .  S
C1075      N1076   1.359       .  A
C1077      C1124   1.481       .  S
C1077      N1078   1.357       .  A
C1077      N1082   1.358       .  A
N1078      C1079   1.355       .  A
C1079      N1080   1.356       .  A
N1080      C1081   1.358       .  A
C1081      C1137   1.473       .  S
C1081      N1082   1.359       .  A
C1083      C1088   1.399       .  A
C1083      H1090   1.083       .  S
C1084      C1085   1.409       .  A
C1085      C1086   1.398       .  A
C1085      F1092   1.357       .  S
C1086      C1087   1.405       .  A
C1086      H1091   1.083       .  S
C1088      F1089   1.358       .  S
C1093      C1098   1.399       .  A
C1093      H1100   1.083       .  S
C1094      C1095   1.406       .  A
C1095      C1096   1.397       .  A
C1095      F1102   1.358       .  S
C1096      C1097   1.407       .  A
C1096      H1101   1.083       .  S
C1098      F1099   1.357       .  S
C1103      C1108   1.400       .  A
C1103      H1110   1.084       .  S
C1104      C1105   1.401       .  A
C1105      C1106   1.398       .  A
C1105      F1112   1.358       .  S
C1106      C1107   1.411       .  A
C1106      H1111   1.083       .  S
C1108      F1109   1.357       .  S
C1113      C1118   1.395       .  A
C1113      H1120   1.083       .  S
C1114      C1115   1.410       .  A
C1115      C1116   1.398       .  A
C1115      F1122   1.357       .  S
C1116      C1117   1.403       .  A
C1116      H1121   1.083       .  S
C1118      F1119   1.358       .  S
C1123      C1124   1.407       .  A
C1123      C1128   1.398       .  A
C1123      H1130   1.083       .  S
C1124      C1125   1.409       .  A
C1125      C1126   1.393       .  A
C1125      F1132   1.357   1_565  S
C1126      C1127   1.402       .  A
C1126      H1131   1.084   1_565  S
C1127      C1128   1.406       .  A
C1133      C1134   1.405       .  A
C1133      C1138   1.394       .  A
C1133      H1140   1.083       .  S
C1135      F1142   1.358       .  S
C1136      C1137   1.404   1_545  A
C1137      C1138   1.406       .  A
C1138      F1139   1.358       .  S
C1143      C1144   1.403       .  A
C1143      C1148   1.397       .  A
C1143      H1150   1.083       .  S
C1144      C1145   1.406   1_565  A
C1145      C1146   1.398       .  A
C1145      F1152   1.358       .  S
C1146      C1147   1.407   1_545  A
C1146      H1151   1.083       .  S
C1147      C1148   1.411       .  A
C1153      H1160   1.083       .  S
C1154      C1155   1.414       .  A
C1155      C1156   1.398       .  A
C1155      F1162   1.357       .  S
C1156      C1157   1.401       .  A
C1156      H1161   1.084       .  S
C1157      C1158   1.407   1_565  A
O1163     Zr1175   2.440       .  S
O1163      C1165   1.288       .  A
C1165      C1320   1.487       .  S
O1166     Zr1178   2.449       .  S
O1167      C1168   1.284   1_655  A
O1169     Zr1178   2.450       .  S
O1169      C1171   1.290       .  A
O1170     Zr1201   2.429       .  S
C1171      C1300   1.479       .  S
O1172     Zr1175   2.448       .  S
O1173     Zr1202   2.412       .  S
O1173      C1174   1.285   1_655  A
Zr1175     O1176   2.436       .  S
Zr1175     O1177   2.435       .  S
Zr1175     O1181   2.374       .  S
Zr1175     O1182   2.367       .  S
O1176      H1219   0.990       .  S
O1177      H1218   0.990       .  S
O1177      H1222   0.990       .  S
Zr1178     O1179   2.436       .  S
Zr1178     O1180   2.434       .  S
O1179      H1220   0.990       .  S
O1179      H1223   0.990       .  S
O1180      H1213   0.990       .  S
O1183     Zr1195   2.442       .  S
O1183      C1185   1.289       .  A
O1184     Zr1202   2.414       .  S
O1186     Zr1198   2.434       .  S
O1187     Zr1201   2.431       .  S
O1187      C1188   1.289       .  A
C1188      C1253   1.479       .  S
O1189     Zr1198   2.432       .  S
O1189      C1191   1.287       .  A
O1192     Zr1195   2.439       .  S
O1193      C1194   1.285       .  A
C1194      C1273   1.469       .  S
Zr1195     O1196   2.433       .  S
Zr1195     O1197   2.434       .  S
O1196      H1216   0.990       .  S
O1196      H1221   0.990       .  S
O1197      H1217   0.990       .  S
Zr1198     O1199   2.436       .  S
Zr1198     O1200   2.437       .  S
Zr1198     O1204   2.374       .  S
Zr1198     O1203   2.375       .  S
O1199      H1215   0.990       .  S
O1200      H1214   0.990       .  S
O1200      H1224   0.990       .  S
Zr1201     O1206   2.386       .  S
Zr1202     O1205   2.375       .  S
O1206      H1210   0.965       .  S
O1207      H1212   0.966       .  S
C1225      C1283   1.479       .  S
C1225      N1226   1.357       .  A
C1225      N1230   1.358       .  A
N1226      C1227   1.356       .  A
C1227      C1235   1.466       .  S
C1227      N1228   1.357       .  A
N1228      C1229   1.359       .  A
C1229      C1270   1.484       .  S
C1229      N1230   1.359       .  A
C1231      C1263   1.481       .  S
C1231      N1232   1.357       .  A
C1231      N1236   1.357       .  A
N1232      C1233   1.358       .  A
C1233      C1250   1.478       .  S
C1233      N1234   1.359       .  A
N1234      C1235   1.357       .  A
C1235      N1236   1.357       .  A
C1237      C1310   1.470   1_545  S
C1237      N1238   1.356   1_545  A
C1237      N1242   1.359       .  A
N1238      C1239   1.355       .  A
C1239      C1245   1.465       .  S
C1239      N1240   1.357   1_565  A
N1240      C1241   1.359       .  A
C1241      C1323   1.474       .  S
C1241      N1242   1.358       .  A
C1243      C1290   1.479       .  S
C1243      N1244   1.357       .  A
C1243      N1248   1.359       .  A
N1244      C1245   1.356       .  A
C1245      N1246   1.355       .  A
N1246      C1247   1.357       .  A
C1247      C1303   1.478       .  S
C1247      N1248   1.360       .  A
C1249      C1254   1.397       .  A
C1249      H1256   1.083       .  S
C1250      C1251   1.407       .  A
C1251      C1252   1.394       .  A
C1251      F1258   1.357       .  S
C1252      C1253   1.403       .  A
C1252      H1257   1.083       .  S
C1254      F1255   1.358       .  S
C1259      C1264   1.396       .  A
C1259      H1266   1.083       .  S
C1260      C1261   1.408       .  A
C1261      C1262   1.398       .  A
C1261      F1268   1.358       .  S
C1262      C1263   1.406       .  A
C1262      H1267   1.083       .  S
C1264      F1265   1.357       .  S
C1269      C1274   1.401       .  A
C1269      H1276   1.083       .  S
C1270      C1271   1.411       .  A
C1271      C1272   1.395       .  A
C1271      F1278   1.357       .  S
C1272      C1273   1.401       .  A
C1272      H1277   1.084       .  S
C1274      F1275   1.357       .  S
C1279      C1284   1.393       .  A
C1279      H1286   1.083       .  S
C1280      C1281   1.409       .  A
C1281      C1282   1.398       .  A
C1281      F1288   1.357       .  S
C1282      C1283   1.405       .  A
C1282      H1287   1.083       .  S
C1284      F1285   1.357       .  S
C1289      C1290   1.405       .  A
C1289      C1294   1.399       .  A
C1289      H1296   1.083       .  S
C1290      C1291   1.407   1_565  A
C1291      C1292   1.395       .  A
C1291      F1298   1.358       .  S
C1292      C1293   1.407   1_545  A
C1292      H1297   1.083       .  S
C1293      C1294   1.410       .  A
C1299      C1300   1.405       .  A
C1299      C1304   1.397       .  A
C1299      H1306   1.083       .  S
C1301      F1308   1.358       .  S
C1302      C1303   1.404   1_545  A
C1303      C1304   1.408       .  A
C1304      F1305   1.358       .  S
C1309      C1310   1.402       .  A
C1309      C1314   1.396       .  A
C1309      H1316   1.083       .  S
C1310      C1311   1.404   1_565  A
C1311      C1312   1.394       .  A
C1311      F1318   1.358       .  S
C1312      C1313   1.406   1_545  A
C1312      H1317   1.083       .  S
C1313      C1314   1.409       .  A
C1319      H1326   1.083       .  S
C1320      C1321   1.412       .  A
C1321      C1322   1.395       .  A
C1321      F1328   1.357       .  S
C1322      C1323   1.401   1_565  A
C1322      H1327   1.084       .  S
C1323      C1324   1.406       .  A
