geometry optimzed in LAMMPS
_audit_creation_date              2020-12-01 
_audit_creation_method            'lammps2cif' 
_symmetry_space_group_name_H-M    'P1' 
_symmetry_Int_Tables_number       1 
_symmetry_cell_setting            triclinic 
loop_ 
_symmetry_equiv_pos_as_xyz 
  x,y,z 
_cell_length_a                    74.29134871 
_cell_length_b                    74.41453056706763 
_cell_length_c                    42.950909320067346 
_cell_angle_alpha                 89.94364397698381 
_cell_angle_beta                  89.97484213513107 
_cell_angle_gamma                 124.20159940666102 
loop_ 
_atom_site_label 
_atom_site_type_symbol 
_atom_site_fract_x 
_atom_site_fract_y 
_atom_site_fract_z 
_atom_site_charge 
O1          O  0.44177520  0.41559625  0.18899929    -0.71600
O2          O  0.42048679  0.43556672  0.25071365    -0.71800
O3          O  0.41992726  0.43468933  0.18824658    -0.71600
O4          O  0.44227487  0.41663752  0.25138739    -0.71600
O5          O  0.47323169  0.44808010  0.24938738    -0.71600
O6          O  0.45041407  0.46662645  0.18805886    -0.71600
O7          O  0.45156154  0.46699031  0.25052782    -0.71600
O8          O  0.47209672  0.44763243  0.18699783    -0.71700
V9          V  0.43169951  0.42622016  0.21975152     1.35200
V10         V  0.46120679  0.45671542  0.21871681     1.35200
C11         C  0.46059371  0.42820773  0.17764373     0.77700
C12         C  0.43269072  0.45448341  0.26174083     0.77700
C13         C  0.43133985  0.45386779  0.17772510     0.77600
C14         C  0.46144202  0.42942006  0.26146226     0.77600
C15         C  0.84847351  0.48297025  0.01472486     0.80400
N16         N  0.85883640  0.48844931  0.04266423    -0.77900
C17         C  0.88091291  0.50057555  0.04370681     0.82900
N18         N  0.89251729  0.50651446  0.01687047    -0.77800
C19         C  0.88272816  0.50492442  0.49153150     0.83000
N20         N  0.86067085  0.49278313  0.49184525    -0.79500
C21         C  0.53457028  0.37715494  0.47263906     0.80400
N22         N  0.52942607  0.38160465  0.44453510    -0.77900
C23         C  0.51526467  0.38766425  0.44294298     0.82900
N24         N  0.50661280  0.38954351  0.46954226    -0.77800
C25         C  0.50997268  0.38241345  0.99605147     0.83000
N26         N  0.52452325  0.37690173  0.99657175    -0.79500
C27         C  0.65452709  0.35322135  0.49146439     0.80400
N28         N  0.67583260  0.36985011  0.49347676    -0.77900
C29         C  0.69139838  0.36573828  0.49645966     0.82900
N30         N  0.68548363  0.34485706  0.49829579    -0.77800
C31         C  0.66420539  0.32811771  0.49636437     0.83000
N32         N  0.64882310  0.33245372  0.49353744    -0.79500
C33         C  0.61227905  0.17147480  0.51470701     0.80400
N34         N  0.60578804  0.16032987  0.48735707    -0.77900
C35         C  0.59505998  0.13835238  0.48726241     0.82900
N36         N  0.59075330  0.12765543  0.51469847    -0.77800
C37         C  0.59872746  0.13893429  0.04009478     0.83000
N38         N  0.60917252  0.16086668  0.03951218    -0.79500
O39         O  0.52733064  0.02629027  0.29465338    -0.71600
O40         O  0.51099914  0.98626974  0.22844296    -0.71800
O41         O  0.50749495  0.98307459  0.29045533    -0.71600
O42         O  0.53096734  0.02950222  0.23244404    -0.71600
O43         O  0.56233932  0.03374418  0.23558900    -0.71600
O44         O  0.53877912  0.98717404  0.29305369    -0.71600
O45         O  0.54248448  0.99069703  0.23093293    -0.71600
O46         O  0.55855419  0.03023186  0.29774049    -0.71700
V47         V  0.51980656  0.00637954  0.26154865     1.35200
V48         V  0.54992920  0.01039101  0.26428345     1.35200
C49         C  0.54561319  0.03483814  0.30776799     0.77700
C50         C  0.52401049  0.98180514  0.21829682     0.77700
C51         C  0.51910803  0.97711148  0.30148883     0.77600
C52         C  0.55069625  0.03956529  0.22424551     0.77600
O53         O  0.02000085  0.53284210  0.23307165    -0.71600
O54         O  0.98152949  0.52335652  0.29861752    -0.71800
O55         O  0.97948911  0.52359318  0.23662514    -0.71600
O56         O  0.02198885  0.53253653  0.29502160    -0.71600
O57         O  0.03392475  0.56662952  0.29791426    -0.71600
O58         O  0.99391636  0.55834305  0.23513962    -0.71600
O59         O  0.99340084  0.55752394  0.29751206    -0.71600
O60         O  0.03452409  0.56745975  0.23565885    -0.71700
V61         V  0.00099331  0.52874650  0.26581184     1.35200
V62         V  0.01370077  0.56185868  0.26652951     1.35200
C63         C  0.03437504  0.55180784  0.22385261     0.77700
C64         C  0.98048874  0.53870526  0.30861980     0.77700
C65         C  0.97941112  0.53938432  0.22600056     0.77600
C66         C  0.03514854  0.55109517  0.30659460     0.77600
C67         C  0.38262056  0.53200528  0.97106886     0.80400
N68         N  0.38607413  0.52487073  0.99805828    -0.77900
C69         C  0.39183518  0.51054302  0.99753596     0.82900
N70         N  0.39387135  0.50315316  0.96986028    -0.77800
C71         C  0.39307179  0.51171313  0.44048119     0.83000
N72         N  0.38743144  0.52619859  0.44082111    -0.79500
C73         C  0.35417645  0.64691614  0.49960343     0.80400
N74         N  0.33276599  0.63837292  0.50460892    -0.77900
C75         C  0.32593045  0.65139197  0.51145069     0.82900
N76         N  0.34069644  0.67321592  0.51269312    -0.77800
C77         C  0.36208602  0.68195962  0.50717441     0.83000
N78         N  0.36880497  0.66877901  0.50058800    -0.79500
C79         C  0.16642280  0.59216241  0.51472039     0.80400
N80         N  0.15379824  0.58587736  0.04583023    -0.77900
C81         C  0.13216266  0.57723763  0.04320422     0.82900
N82         N  0.12319658  0.57425751  0.51157113    -0.77800
C83         C  0.13478562  0.57935776  0.48488603     0.83000
N84         N  0.15652072  0.58834742  0.48648850    -0.79500
C85         C  0.45429920  0.84410483  0.51277485     0.80400
N86         N  0.45860271  0.85397651  0.48455349    -0.77900
C87         C  0.47046066  0.87595838  0.48265962     0.82900
N88         N  0.47762089  0.88796358  0.50904712    -0.77800
C89         C  0.47588946  0.87815195  0.03927674     0.83000
N90         N  0.46423073  0.85616362  0.04151200    -0.79500
C91         C  0.40664099  0.74072484  0.48890024    -0.22200
C92         C  0.40740740  0.75060685  0.01954475     0.09700
C93         C  0.39376476  0.73845975  0.04476951     0.10100
C94         C  0.37950542  0.71587668  0.04187945    -0.17200
C95         C  0.37786318  0.70560533  0.50948149    -0.27600
C96         C  0.39250296  0.71818335  0.48513462     0.18500
C97         C  0.42028225  0.77453356  0.01965076     0.12400
C98         C  0.39375496  0.74939361  0.07427881    -0.11900
H99         H  0.36888560  0.70643177  0.06114350     0.12700
C100        C  0.39282888  0.70879048  0.45420535    -0.22800
H101        H  0.41753176  0.75055009  0.47006752     0.08400
C102        C  0.44179014  0.78726337  0.03097372     0.04700
C103        C  0.45307612  0.80999043  0.03015743    -0.20000
C104        C  0.44134139  0.82031956  0.51475863    -0.12300
C105        C  0.41999499  0.80736446  0.50262110     0.13400
C106        C  0.40896873  0.78475266  0.50342901    -0.22700
C107        C  0.45289306  0.77689026  0.04320850    -0.05800
H108        H  0.46972175  0.81997506  0.03843814     0.14900
C109        C  0.40808148  0.81668501  0.48942982    -0.16000
H110        H  0.39260797  0.77470742  0.49408878     0.09300
H111        H  0.40893699  0.71137150  0.45073915     0.07100
H112        H  0.39014413  0.71718096  0.43521827     0.08300
H113        H  0.38005179  0.69123650  0.45192763     0.07400
H114        H  0.38922867  0.76096913  0.06896767     0.02200
H115        H  0.41015726  0.75837426  0.08501937     0.02700
H116        H  0.38195091  0.73745290  0.09159281     0.06200
H117        H  0.46978764  0.78925114  0.05090911     0.05200
H118        H  0.45359570  0.76693148  0.02464048    -0.00600
H119        H  0.44375593  0.76629730  0.06338772     0.00900
H120        H  0.40441065  0.81222029  0.46447338     0.04600
H121        H  0.41731391  0.83458910  0.49140993     0.06500
H122        H  0.39252680  0.80983310  0.50221556     0.07400
C123        C  0.22597033  0.62484070  0.04292075    -0.22200
C124        C  0.23420749  0.61598462  0.51889500     0.09700
C125        C  0.22070259  0.60164489  0.49516624     0.10100
C126        C  0.19875217  0.59440620  0.49432870    -0.17200
C127        C  0.18999105  0.60131851  0.51653865    -0.27600
C128        C  0.20393380  0.61730789  0.04129874     0.18500
C129        C  0.25785463  0.62566742  0.51876946     0.12400
C130        C  0.22956508  0.59418101  0.47056604    -0.11900
H131        H  0.18832614  0.58312676  0.47630124     0.12700
C132        C  0.19717450  0.63048809  0.05788000    -0.22800
H133        H  0.23716972  0.63938379  0.05616907     0.08400
C134        C  0.27230166  0.64552450  0.50341612     0.04700
C135        C  0.29444288  0.65361024  0.50195284    -0.20000
C136        C  0.30247363  0.64218635  0.51519306    -0.12300
C137        C  0.28942927  0.62611633  0.04439394     0.13400
C138        C  0.26704486  0.61725548  0.04540304    -0.22700
C139        C  0.26424674  0.65797440  0.48810375    -0.05800
H140        H  0.30547398  0.66871411  0.48969201     0.14900
C141        C  0.29829468  0.61749887  0.06714025    -0.16000
H142        H  0.25673732  0.60430094  0.06173308     0.09300
H143        H  0.20775575  0.64769645  0.05020735     0.07100
H144        H  0.19912415  0.62975130  0.08338529     0.08300
H145        H  0.18023147  0.62510742  0.05305169     0.07400
H146        H  0.23604726  0.58545619  0.48168161     0.02200
H147        H  0.24285439  0.60841269  0.45753409     0.02700
H148        H  0.21682894  0.58301513  0.45361884     0.06200
H149        H  0.27767903  0.67309804  0.47681255     0.05200
H150        H  0.25660491  0.66254111  0.50579535    -0.00600
H151        H  0.25204867  0.64777768  0.46996816     0.00900
H152        H  0.29395546  0.61916586  0.09121208     0.04600
H153        H  0.31623695  0.62628620  0.06623726     0.06500
H154        H  0.29099733  0.60003975  0.06236035     0.07400
C155        C  0.38157907  0.61662985  0.00307293    -0.22200
C156        C  0.37015655  0.60138743  0.47706865     0.09700
C157        C  0.35250079  0.60018887  0.46266298     0.10100
C158        C  0.34821837  0.61576929  0.46991620    -0.17200
C159        C  0.36098341  0.63231255  0.49161336    -0.27600
C160        C  0.37748655  0.63225204  0.01126924     0.18500
C161        C  0.37354983  0.58380605  0.47339179     0.12400
C162        C  0.33795496  0.58221746  0.44014560    -0.11900
H163        H  0.33454897  0.61480314  0.45897718     0.12700
C164        C  0.39192061  0.64857712  0.03581486    -0.22800
H165        H  0.39504014  0.61707500  0.01380132     0.08400
C166        C  0.38801909  0.58485993  0.45110502     0.04700
C167        C  0.39067752  0.56766188  0.44907756    -0.20000
C168        C  0.37703680  0.54811157  0.97213035    -0.12300
C169        C  0.36136269  0.54615760  0.99323724     0.13400
C170        C  0.35893903  0.56339962  0.99623323    -0.22700
C171        C  0.40079467  0.60422961  0.42989801    -0.05800
H172        H  0.40227403  0.56867085  0.43259692     0.14900
C173        C  0.34641425  0.52599605  0.01227271    -0.16000
H174        H  0.34717366  0.56212131  0.01266660     0.09300
H175        H  0.40879844  0.65913242  0.02674191     0.07100
H176        H  0.39202122  0.63986139  0.05675148     0.08300
H177        H  0.38653804  0.65897075  0.04367853     0.07400
H178        H  0.33004638  0.56623920  0.45202039     0.02200
H179        H  0.34772328  0.58266139  0.42022911     0.02700
H180        H  0.32495497  0.58378525  0.43082202     0.06200
H181        H  0.41137457  0.60244180  0.41375199     0.05200
H182        H  0.41129611  0.61912773  0.44397385    -0.00600
H183        H  0.38948301  0.60616184  0.41575288     0.00900
H184        H  0.35017116  0.52973806  0.03739108     0.04600
H185        H  0.34748032  0.51218066  0.00613387     0.06500
H186        H  0.32927446  0.52048167  0.00817734     0.07400
C187        C  0.11767899  0.58354198  0.40289476    -0.22200
C188        C  0.09604478  0.56538691  0.40287924     0.09700
C189        C  0.08797394  0.55110360  0.42849400     0.10100
C190        C  0.10160179  0.55555956  0.45393453    -0.17200
C191        C  0.12299102  0.57426371  0.45490159    -0.27600
C192        C  0.13128901  0.58829214  0.42874607     0.18500
C193        C  0.08140908  0.56258843  0.37724540     0.12400
C194        C  0.06470676  0.53163911  0.42952723    -0.11900
H195        H  0.09523437  0.54460388  0.47369550     0.12700
C196        C  0.15388946  0.60880607  0.42851978    -0.22800
H197        H  0.12361931  0.59447360  0.38308090     0.08400
C198        C  0.07119990  0.57382026  0.37745834     0.04700
C199        C  0.05640537  0.56985057  0.35385819    -0.20000
C200        C  0.05128601  0.55464637  0.33028068    -0.12300
C201        C  0.06171692  0.54349456  0.32992294     0.13400
C202        C  0.07670128  0.54765845  0.35350683    -0.22700
C203        C  0.07557174  0.58965320  0.40300863    -0.05800
H204        H  0.04841855  0.57835693  0.35421397     0.14900
C205        C  0.05768270  0.52772196  0.30443473    -0.16000
H206        H  0.08463088  0.53909500  0.35368514     0.09300
H207        H  0.15722410  0.61824383  0.40672214     0.07100
H208        H  0.16611788  0.60474207  0.43026206     0.08300
H209        H  0.15583705  0.61930786  0.44837234     0.07400
H210        H  0.06163894  0.52053449  0.40994976     0.02200
H211        H  0.05350247  0.53700644  0.42760463     0.02700
H212        H  0.06095595  0.52238818  0.45161301     0.06200
H213        H  0.06600094  0.59681363  0.39985617     0.05200
H214        H  0.09308997  0.60311719  0.40315200    -0.00600
H215        H  0.07111456  0.58122970  0.42588161     0.00900
H216        H  0.06128479  0.53590852  0.28144453     0.04600
H217        H  0.04051605  0.51348669  0.30508755     0.06500
H218        H  0.06817267  0.52154231  0.30702907     0.07400
C219        C  0.06912287  0.54449083  0.16653951    -0.22200
C220        C  0.08157426  0.56521908  0.15333053     0.09700
C221        C  0.07924273  0.58168709  0.16392090     0.10100
C222        C  0.06393877  0.57685008  0.18720676    -0.17200
C223        C  0.05073283  0.55582321  0.19997832    -0.27600
C224        C  0.05374379  0.53949138  0.18982207     0.18500
C225        C  0.09492218  0.56848786  0.12581820     0.12400
C226        C  0.09263146  0.60422118  0.15019116    -0.11900
H227        H  0.06202413  0.58953696  0.19496585     0.12700
C228        C  0.04101951  0.51676842  0.20303989    -0.22800
H229        H  0.07109874  0.53200468  0.15791330     0.08400
C230        C  0.11665981  0.57498492  0.12816158     0.04700
C231        C  0.12832522  0.57768248  0.10087058    -0.20000
C232        C  0.11863496  0.57376796  0.07121226    -0.12300
C233        C  0.09642330  0.56687909  0.06933302     0.13400
C234        C  0.08506920  0.56445296  0.09672646    -0.22700
C235        C  0.12742405  0.57895217  0.15943789    -0.05800
H236        H  0.14510609  0.58279891  0.10289927     0.14900
C237        C  0.08410135  0.56195172  0.03910627    -0.16000
H238        H  0.06821302  0.55928017  0.09558250     0.09300
H239        H  0.04627629  0.50668455  0.19293137     0.07100
H240        H  0.02345911  0.50852783  0.19770404     0.08300
H241        H  0.04351769  0.51735968  0.22859547     0.07400
H242        H  0.08929228  0.60353471  0.12487771     0.02200
H243        H  0.11020118  0.61127206  0.15367245     0.02700
H244        H  0.08885767  0.61522701  0.16124507     0.06200
H245        H  0.14454764  0.58395774  0.15718576     0.05200
H246        H  0.11840644  0.56384627  0.17357400    -0.00600
H247        H  0.12742180  0.59202129  0.17185871     0.00900
H248        H  0.08299812  0.54814143  0.02720313     0.04600
H249        H  0.06713710  0.55713448  0.04282620     0.06500
H250        H  0.09218403  0.57657433  0.02394751     0.07400
C251        C  0.49983957  0.90386104  0.11815799    -0.22200
C252        C  0.49547663  0.91988369  0.11871324     0.09700
C253        C  0.48461106  0.92194782  0.09355981     0.10100
C254        C  0.47836594  0.90789890  0.06818595    -0.17200
C255        C  0.48282001  0.89189663  0.06728282    -0.27600
C256        C  0.49386827  0.88991800  0.09253197     0.18500
C257        C  0.50313395  0.93501503  0.14523620     0.12400
C258        C  0.47967263  0.93901980  0.09348603    -0.11900
H259        H  0.46987881  0.90939062  0.04888329     0.12700
C260        C  0.50061831  0.87422488  0.09279714    -0.22800
H261        H  0.50845039  0.90260794  0.13751105     0.08400
C262        C  0.49001171  0.93038963  0.17171134     0.04700
C263        C  0.49731681  0.94607755  0.19518185    -0.20000
C264        C  0.51746486  0.96617812  0.19271479    -0.12300
C265        C  0.53059462  0.97077646  0.16601969     0.13400
C266        C  0.52329834  0.95496975  0.14275846    -0.22700
C267        C  0.46828689  0.90900579  0.17497532    -0.05800
H268        H  0.48730134  0.94262207  0.21563431     0.14900
C269        C  0.55174334  0.99240435  0.16033588    -0.16000
H270        H  0.53309697  0.95848264  0.12202067     0.09300
H271        H  0.49217624  0.86238975  0.11208814     0.07100
H272        H  0.51846001  0.88332254  0.09660048     0.08300
H273        H  0.49711160  0.86515638  0.07076182     0.07400
H274        H  0.49505832  0.95543131  0.09483409     0.02200
H275        H  0.46927319  0.93660301  0.11378095     0.02700
H276        H  0.47095657  0.93829354  0.07201662     0.06200
H277        H  0.46010289  0.90801142  0.19718267     0.05200
H278        H  0.47057124  0.89549029  0.17451788    -0.00600
H279        H  0.45746165  0.90693077  0.15549163     0.00900
H280        H  0.56524614  0.99010786  0.15879629     0.04600
H281        H  0.55574072  0.00453721  0.17862712     0.06500
H282        H  0.55074483  0.99933097  0.13799761     0.07400
C283        C  0.48097945  0.92575834  0.34839198    -0.22200
C284        C  0.49506141  0.92786425  0.37194209     0.09700
C285        C  0.51718056  0.94530896  0.37122485     0.10100
C286        C  0.52457471  0.96079762  0.34746428    -0.17200
C287        C  0.51033820  0.95935487  0.32456100    -0.27600
C288        C  0.48833231  0.94129501  0.32456973     0.18500
C289        C  0.48616183  0.91259939  0.39845656     0.12400
C290        C  0.53284157  0.94794242  0.39603871    -0.11900
H291        H  0.54146666  0.97448764  0.34733932     0.12700
C292        C  0.47264510  0.93797233  0.29933023    -0.22800
H293        H  0.46407275  0.91211543  0.34907139     0.08400
C294        C  0.47516942  0.91524540  0.42288612     0.04700
C295        C  0.46955038  0.90236170  0.44959985    -0.20000
C296        C  0.47481241  0.88704227  0.45250077    -0.12300
C297        C  0.48537696  0.88402494  0.42762967     0.13400
C298        C  0.49061472  0.89668275  0.40066202    -0.22700
C299        C  0.47009123  0.93219220  0.42124552    -0.05800
H300        H  0.46145127  0.90460730  0.46870380     0.14900
C301        C  0.49270000  0.86881493  0.42925037    -0.16000
H302        H  0.49922278  0.89490066  0.38182765     0.09300
H303        H  0.46974671  0.95104786  0.30017313     0.07100
H304        H  0.45661851  0.92224548  0.30204997     0.08300
H305        H  0.47933641  0.93795083  0.27621700     0.07400
H306        H  0.53403511  0.93373222  0.39586186     0.02200
H307        H  0.52707165  0.94922963  0.41925033     0.02700
H308        H  0.54943706  0.96276956  0.39227039     0.06200
H309        H  0.46179803  0.93234219  0.44267004     0.05200
H310        H  0.45920913  0.92881228  0.40118478    -0.00600
H311        H  0.48538967  0.94855383  0.41839627     0.00900
H312        H  0.48434211  0.85624181  0.41087570     0.04600
H313        H  0.48948963  0.86054842  0.45198159     0.06500
H314        H  0.51053759  0.87813802  0.42520602     0.07400
C315        C  0.59131094  0.11763797  0.40471519    -0.22200
C316        C  0.57160661  0.09716959  0.40665411     0.09700
C317        C  0.55899298  0.09107669  0.43398871     0.10100
C318        C  0.56677332  0.10532520  0.45933989    -0.17200
C319        C  0.58692595  0.12556052  0.45810110    -0.27600
C320        C  0.59916565  0.13200745  0.43012789     0.18500
C321        C  0.56512729  0.08164377  0.38074666     0.12400
C322        C  0.53745669  0.06939877  0.43652581    -0.11900
H323        H  0.55719249  0.10043504  0.48053589     0.12700
C324        C  0.62091141  0.15339460  0.42729328    -0.22800
H325        H  0.60084048  0.12209065  0.38351634     0.08400
C326        C  0.55372730  0.08177031  0.35464381     0.04700
C327        C  0.54722968  0.06602465  0.33138459    -0.20000
C328        C  0.55183888  0.05015903  0.33382185    -0.12300
C329        C  0.56270381  0.04970525  0.36061373     0.13400
C330        C  0.56960611  0.06577352  0.38336738    -0.22700
C331        C  0.54837802  0.09843294  0.35151127    -0.05800
H332        H  0.53877787  0.06628023  0.31099523     0.14900
C333        C  0.56634283  0.03202864  0.36700896    -0.16000
H334        H  0.57796593  0.06552747  0.40389511     0.09300
H335        H  0.62855632  0.15523974  0.40423660     0.07100
H336        H  0.63213065  0.15451010  0.44543657     0.08300
H337        H  0.61886171  0.16697726  0.42990607     0.07400
H338        H  0.53987977  0.05606271  0.43381986     0.02200
H339        H  0.52629673  0.06800771  0.41804289     0.02700
H340        H  0.52954816  0.06733296  0.45942347     0.06200
H341        H  0.53925355  0.09615906  0.32974943     0.05200
H342        H  0.56363001  0.11498670  0.35111701    -0.00600
H343        H  0.53822469  0.09709438  0.37152720     0.00900
H344        H  0.58406453  0.03906921  0.36708309     0.04600
H345        H  0.55826547  0.01851647  0.35008125     0.06500
H346        H  0.55953296  0.02476301  0.39022893     0.07400
C347        C  0.60180293  0.11915282  0.12046441    -0.22200
C348        C  0.58037129  0.10095490  0.12365721     0.09700
C349        C  0.56507826  0.09575310  0.09996938     0.10100
C350        C  0.57161783  0.10885969  0.07338280    -0.17200
C351        C  0.59315567  0.12690604  0.06972377    -0.27600
C352        C  0.60855519  0.13206676  0.09351663     0.18500
C353        C  0.57453095  0.08654657  0.15086450     0.12400
C354        C  0.54201820  0.07604167  0.10239115    -0.11900
H355        H  0.55986333  0.10484485  0.05510367     0.12700
C356        C  0.63236813  0.15006578  0.09076454    -0.22800
H357        H  0.61352981  0.12279338  0.13862065     0.08400
C358        C  0.57959070  0.07091898  0.15167826     0.04700
C359        C  0.57231230  0.05642788  0.17676117    -0.20000
C360        C  0.55976896  0.05695537  0.20071717    -0.12300
C361        C  0.55544296  0.07322191  0.20050715     0.13400
C362        C  0.56275441  0.08771875  0.17532685    -0.22700
C363        C  0.59199950  0.06904593  0.12556107    -0.05800
H364        H  0.57578749  0.04410608  0.17708808     0.14900
C365        C  0.54385097  0.07627537  0.22665672    -0.16000
H366        H  0.55915462  0.09996065  0.17465085     0.09300
H367        H  0.64223704  0.14321790  0.09376534     0.07100
H368        H  0.63684746  0.16228504  0.10929651     0.08300
H369        H  0.63686032  0.15840870  0.06795268     0.07400
H370        H  0.53395949  0.07750052  0.12306833     0.02200
H371        H  0.54203330  0.06118510  0.10468044     0.02700
H372        H  0.53228128  0.07416034  0.08151576     0.06200
H373        H  0.59417208  0.05563252  0.12965229     0.05200
H374        H  0.60837497  0.08440633  0.12339156    -0.00600
H375        H  0.58303829  0.06577093  0.10332971     0.00900
H376        H  0.55424739  0.09323149  0.23534635     0.04600
H377        H  0.54031733  0.06551155  0.24684982     0.06500
H378        H  0.52832633  0.07329416  0.21793718     0.07400
C379        C  0.64769965  0.23147361  0.49404464    -0.22200
C380        C  0.63818726  0.23905580  0.00710438     0.09700
C381        C  0.62118572  0.22517555  0.02784020     0.10100
C382        C  0.61406336  0.20332096  0.02991728    -0.17200
C383        C  0.62252780  0.19515030  0.51481117    -0.27600
C384        C  0.64048464  0.20957316  0.49552671     0.18500
C385        C  0.64517740  0.26175222  0.00233125     0.12400
C386        C  0.61035377  0.23337073  0.04728564    -0.11900
H387        H  0.60059981  0.19243991  0.04521544     0.12700
C388        C  0.65280488  0.20266712  0.47691325    -0.22800
H389        H  0.66117973  0.24251422  0.47886495     0.08400
C390        C  0.66357584  0.27921092  0.01742308     0.04700
C391        C  0.66938622  0.30043319  0.01200194    -0.20000
C392        C  0.65781892  0.30538467  0.49844896    -0.12300
C393        C  0.64010268  0.28817791  0.48139019     0.13400
C394        C  0.63367904  0.26679414  0.48692699    -0.22700
C395        C  0.67685107  0.27537284  0.03947101    -0.05800
H396        H  0.68316309  0.31381428  0.02432391     0.14900
C397        C  0.62817202  0.29154993  0.45611016    -0.16000
H398        H  0.61998744  0.25356176  0.47423713     0.09300
H399        H  0.67033509  0.21311709  0.48308741     0.07100
H400        H  0.65101988  0.20455960  0.45168288     0.08300
H401        H  0.64732011  0.18567736  0.48155347     0.07400
H402        H  0.60281135  0.23939229  0.03191948     0.02200
H403        H  0.62261256  0.24683655  0.06243114     0.02700
H404        H  0.59739784  0.22039412  0.06240126     0.06200
H405        H  0.69062852  0.29080908  0.04953982     0.05200
H406        H  0.68364554  0.26741762  0.02691439    -0.00600
H407        H  0.66640968  0.26472186  0.05889070     0.00900
H408        H  0.62721969  0.28250663  0.43492051     0.04600
H409        H  0.63640447  0.30868977  0.44877149     0.06500
H410        H  0.61138284  0.28525365  0.46401156     0.07400
C411        C  0.56940345  0.35514275  0.45912138    -0.22200
C412        C  0.58494098  0.36609647  0.97452051     0.09700
C413        C  0.58463300  0.38108718  0.99407876     0.10100
C414        C  0.56719379  0.38333536  0.99207366    -0.17200
C415        C  0.55153584  0.37273395  0.47516930    -0.27600
C416        C  0.55195747  0.35739667  0.45625834     0.18500
C417        C  0.60242504  0.36242682  0.97676640     0.12400
C418        C  0.60273594  0.39472861  0.01692647    -0.11900
H419        H  0.56703724  0.39505594  0.00684461     0.12700
C420        C  0.53394021  0.34242238  0.43403192    -0.22800
H421        H  0.56986162  0.34343927  0.44472621     0.08400
C422        C  0.60057294  0.34658177  0.99703203     0.04700
C423        C  0.61755717  0.34361141  0.99847307    -0.20000
C424        C  0.63740285  0.35739255  0.48797446    -0.12300
C425        C  0.63908131  0.37296598  0.46688789     0.13400
C426        C  0.62222667  0.37619881  0.46567331    -0.22700
C427        C  0.58064961  0.33280599  0.01703661    -0.05800
H428        H  0.61632255  0.33167391  0.01444940     0.14900
C429        C  0.65756509  0.38560921  0.44406774    -0.16000
H430        H  0.62343686  0.38816692  0.44976908     0.09300
H431        H  0.52786081  0.32532091  0.43958905     0.07100
H432        H  0.54027570  0.34604477  0.40981455     0.08300
H433        H  0.51979608  0.34364235  0.43548012     0.07400
H434        H  0.61840014  0.40491903  0.00424528     0.02200
H435        H  0.60398217  0.38408874  0.03363011     0.02700
H436        H  0.59993200  0.40566376  0.03043934     0.06200
H437        H  0.58185465  0.32117115  0.03157330     0.05200
H438        H  0.56602847  0.32333986  0.00203513    -0.00600
H439        H  0.57855663  0.34330952  0.03280687     0.00900
H440        H  0.65086339  0.38318241  0.42016887     0.04600
H441        H  0.66890619  0.38045329  0.44346585     0.06500
H442        H  0.66682736  0.40318383  0.44975455     0.07400
C443        C  0.90113178  0.50454449  0.40883196    -0.22200
C444        C  0.92234762  0.52322425  0.40943867     0.09700
C445        C  0.92984329  0.53680025  0.43577312     0.10100
C446        C  0.91611069  0.53086023  0.46164001    -0.17200
C447        C  0.89508036  0.51158610  0.46184549    -0.27600
C448        C  0.88733849  0.49841574  0.43471761     0.18500
C449        C  0.93708173  0.52708527  0.38342896     0.12400
C450        C  0.95251052  0.55722085  0.43678939    -0.11900
H451        H  0.92206041  0.54110386  0.48215936     0.12700
C452        C  0.86517221  0.47731685  0.43317991    -0.22800
H453        H  0.89568237  0.49425659  0.38835474     0.08400
C454        C  0.94930725  0.51792063  0.38374219     0.04700
C455        C  0.96319896  0.52193343  0.35877010    -0.20000
C456        C  0.96492811  0.53466955  0.33335959    -0.12300
C457        C  0.95191984  0.54309168  0.33245230     0.13400
C458        C  0.93841708  0.53948693  0.35789404    -0.22700
C459        C  0.94763990  0.50388151  0.41042546    -0.05800
H460        H  0.97296330  0.51527604  0.35923082     0.14900
C461        C  0.95092009  0.55490688  0.30465382    -0.16000
H462        H  0.92851941  0.54599779  0.35755447     0.09300
H463        H  0.86255104  0.46876817  0.41073466     0.07100
H464        H  0.85229871  0.48048395  0.43525434     0.08300
H465        H  0.86344646  0.46628520  0.45212935     0.07400
H466        H  0.95458069  0.56829331  0.41767677     0.02200
H467        H  0.96468127  0.55314911  0.43396219     0.02700
H468        H  0.95580465  0.56597824  0.45920678     0.06200
H469        H  0.95833303  0.49801835  0.40693158     0.05200
H470        H  0.93062116  0.48947476  0.41260957    -0.00600
H471        H  0.95250907  0.51327063  0.43245397     0.00900
H472        H  0.93377518  0.54648694  0.29675003     0.04600
H473        H  0.96043607  0.55540505  0.28445164     0.06500
H474        H  0.95693408  0.57180968  0.31130681     0.07400
C475        C  0.90581708  0.52512281  0.12238810    -0.22200
C476        C  0.91889556  0.51722806  0.12658177     0.09700
C477        C  0.91811050  0.50264299  0.10480868     0.10100
C478        C  0.90505383  0.49713964  0.07832897    -0.17200
C479        C  0.89247252  0.50554621  0.07349656    -0.27600
C480        C  0.89250753  0.51942132  0.09602291     0.18500
C481        C  0.93390031  0.52486747  0.15334539     0.12400
C482        C  0.93116619  0.49303138  0.10944987    -0.11900
H483        H  0.90480214  0.48636340  0.06108477     0.12700
C484        C  0.87951260  0.52918312  0.09249302    -0.22800
H485        H  0.90640773  0.53619925  0.13940135     0.08400
C486        C  0.95573320  0.54278132  0.15056459     0.04700
C487        C  0.97005140  0.54803386  0.17552249    -0.20000
C488        C  0.96297510  0.53559361  0.20291754    -0.12300
C489        C  0.94071255  0.51855799  0.20637549     0.13400
C490        C  0.92650176  0.51324925  0.18131433    -0.22700
C491        C  0.96399726  0.55589939  0.12095146    -0.05800
H492        H  0.98705326  0.56121700  0.17306913     0.14900
C493        C  0.93128213  0.50590574  0.23621391    -0.16000
H494        H  0.90959087  0.49976012  0.18343418     0.09300
H495        H  0.89069290  0.54718061  0.09263298     0.07100
H496        H  0.86798635  0.52397961  0.11230140     0.08300
H497        H  0.87001836  0.52438494  0.07061850     0.07400
H498        H  0.92626538  0.48372806  0.13160918     0.02200
H499        H  0.94878400  0.50614655  0.11037618     0.02700
H500        H  0.92854784  0.48181351  0.09024817     0.06200
H501        H  0.98147775  0.56936836  0.12269803     0.05200
H502        H  0.95460078  0.56303683  0.11593773    -0.00600
H503        H  0.96210447  0.54534051  0.10123111     0.00900
H504        H  0.91746321  0.50673976  0.24373343     0.04600
H505        H  0.94307986  0.51233081  0.25568465     0.06500
H506        H  0.92521633  0.48863765  0.23226454     0.07400
C507        C  0.79003070  0.45573832  0.49607417    -0.22200
C508        C  0.78014675  0.43514198  0.00563064     0.09700
C509        C  0.79264503  0.43225493  0.02713516     0.10100
C510        C  0.81472266  0.44879452  0.03086408    -0.17200
C511        C  0.82461001  0.46795935  0.01318074    -0.27600
C512        C  0.81202625  0.47278766  0.49900752     0.18500
C513        C  0.75705790  0.41781281  0.00005524     0.12400
C514        C  0.78274407  0.41158564  0.04573772    -0.11900
H515        H  0.82453012  0.44634720  0.04668945     0.12700
C516        C  0.81985842  0.49354002  0.48153757    -0.22800
H517        H  0.77953642  0.45765596  0.48093687     0.08400
C518        C  0.74016816  0.41834460  0.01387064     0.04700
C519        C  0.71853293  0.40102248  0.00878359    -0.20000
C520        C  0.71450525  0.38394138  0.49889594    -0.12300
C521        C  0.73132106  0.38437046  0.48250924     0.13400
C522        C  0.75299548  0.40159115  0.48760244    -0.22700
C523        C  0.74502949  0.43694033  0.03446980    -0.05800
H524        H  0.70552694  0.40110406  0.02008319     0.14900
C525        C  0.72720767  0.36762886  0.45858766    -0.16000
H526        H  0.76595158  0.40195456  0.47530119     0.09300
H527        H  0.80946081  0.49939591  0.48762928     0.07100
H528        H  0.81866615  0.49042086  0.45609936     0.08300
H529        H  0.83681711  0.50682945  0.48725554     0.07400
H530        H  0.77667767  0.39756844  0.02981397     0.02200
H531        H  0.76898659  0.40905217  0.05989742     0.02700
H532        H  0.79476163  0.41209774  0.06174548     0.06200
H533        H  0.72991859  0.43463553  0.04381243     0.05200
H534        H  0.75391233  0.45233984  0.02099010    -0.00600
H535        H  0.75520329  0.43829534  0.05444875     0.00900
H536        H  0.73538511  0.37592740  0.43641946     0.04600
H537        H  0.70979282  0.35596439  0.45302613     0.06500
H538        H  0.73403570  0.35851105  0.46693701     0.07400
C539        C  0.47478646  0.39448849  0.13104764    -0.22200
C540        C  0.48310499  0.40702118  0.10392213     0.09700
C541        C  0.48454213  0.42667542  0.10143249     0.10100
C542        C  0.47752225  0.43339372  0.12633048    -0.17200
C543        C  0.46881657  0.42070942  0.15335222    -0.27600
C544        C  0.46777534  0.40117424  0.15604753     0.18500
C545        C  0.48977706  0.39907084  0.07796372     0.12400
C546        C  0.49317202  0.44034053  0.07233452    -0.11900
H547        H  0.47830759  0.44835292  0.12439819     0.12700
C548        C  0.46015845  0.38738020  0.18510311    -0.22800
H549        H  0.47392028  0.37947839  0.13278108     0.08400
C550        C  0.51121152  0.40453919  0.07541624     0.04700
C551        C  0.51710086  0.39788829  0.04902108    -0.20000
C552        C  0.50196767  0.38590831  0.02527929    -0.12300
C553        C  0.48013147  0.37940750  0.02887925     0.13400
C554        C  0.47442388  0.38636519  0.05503849    -0.22700
C555        C  0.52789364  0.41776748  0.10019495    -0.05800
H556        H  0.53379958  0.40281188  0.04633339     0.14900
C557        C  0.46229581  0.36478423  0.00615633    -0.16000
H558        H  0.45786389  0.38191098  0.05755873     0.09300
H559        H  0.47306706  0.38528227  0.19320107     0.07100
H560        H  0.44527156  0.37114188  0.17984381     0.08300
H561        H  0.45659859  0.39459596  0.20466881     0.07400
H562        H  0.48288869  0.43080108  0.05213223     0.02200
H563        H  0.51014604  0.44542199  0.06797497     0.02700
H564        H  0.49314493  0.45520893  0.07427516     0.06200
H565        H  0.54392818  0.42070588  0.09449089     0.05200
H566        H  0.52233010  0.40901687  0.12279128    -0.00600
H567        H  0.53014089  0.43376065  0.10263099     0.00900
H568        H  0.44859013  0.35067524  0.01886241     0.04600
H569        H  0.46747775  0.35806233  0.98797358     0.06500
H570        H  0.45629575  0.37387608  0.99480298     0.07400
C571        C  0.46651877  0.40552995  0.33643871    -0.22200
C572        C  0.48785641  0.41107368  0.33387490     0.09700
C573        C  0.50046035  0.42254858  0.30753508     0.10100
C574        C  0.49131905  0.42820868  0.28414403    -0.17200
C575        C  0.46997741  0.42286051  0.28679266    -0.27600
C576        C  0.45757639  0.41179487  0.31371247     0.18500
C577        C  0.49708437  0.40628925  0.36052973     0.12400
C578        C  0.52361086  0.42913750  0.30448292    -0.11900
H579        H  0.50088854  0.43689594  0.26370640     0.12700
C580        C  0.43556057  0.40754036  0.32054233    -0.22800
H581        H  0.45713661  0.39714502  0.35716433     0.08400
C582        C  0.50356702  0.41910355  0.38765488     0.04700
C583        C  0.51016537  0.41291796  0.41366304    -0.20000
C584        C  0.51053744  0.39426370  0.41325218    -0.12300
C585        C  0.50487301  0.38188342  0.38560191     0.13400
C586        C  0.49812538  0.38806013  0.35949364    -0.22700
C587        C  0.50335720  0.43922632  0.38925202    -0.05800
H588        H  0.51477068  0.42256986  0.43471450     0.14900
C589        C  0.50493377  0.36171304  0.38389543    -0.16000
H590        H  0.49310185  0.37835813  0.33846350     0.09300
H591        H  0.43596676  0.41438309  0.34371025     0.07100
H592        H  0.42305704  0.38975759  0.32098997     0.08300
H593        H  0.43053576  0.41517049  0.30371368     0.07400
H594        H  0.52402043  0.41445475  0.30442974     0.02200
H595        H  0.53339355  0.43968642  0.32435009     0.02700
H596        H  0.53126292  0.43826987  0.28258303     0.06200
H597        H  0.50938632  0.44759127  0.41203488     0.05200
H598        H  0.48653580  0.43488249  0.38605643    -0.00600
H599        H  0.51397734  0.45078604  0.37069659     0.00900
H600        H  0.49409303  0.35000811  0.40216862     0.04600
H601        H  0.52173313  0.36603811  0.38722752     0.06500
H602        H  0.49909757  0.35354699  0.36094967     0.07400
C603        C  0.43076588  0.47958476  0.33712197    -0.22200
C604        C  0.41101599  0.47766062  0.33379781     0.09700
C605        C  0.39799184  0.46744161  0.30729609     0.10100
C606        C  0.40525924  0.45956510  0.28428061    -0.17200
C607        C  0.42523806  0.46180832  0.28735851    -0.27600
C608        C  0.43791203  0.47144375  0.31450098     0.18500
C609        C  0.40402071  0.48561130  0.35936478     0.12400
C610        C  0.37658240  0.46499773  0.30333573    -0.11900
H611        H  0.39552474  0.45198641  0.26356942     0.12700
C612        C  0.45846802  0.47256517  0.32118776    -0.22800
H613        H  0.44040909  0.48702037  0.35796888     0.08400
C614        C  0.39279948  0.47232769  0.38527348     0.04700
C615        C  0.38858884  0.48116482  0.41069054    -0.20000
C616        C  0.39559894  0.50306996  0.41103485    -0.12300
C617        C  0.40639910  0.51626474  0.38460711     0.13400
C618        C  0.41043254  0.50727523  0.35899153    -0.22700
C619        C  0.38585981  0.44901437  0.38647334    -0.05800
H620        H  0.38022981  0.47100970  0.43083000     0.14900
C621        C  0.41475099  0.53998994  0.38381646    -0.16000
H622        H  0.41924702  0.51733475  0.33897401     0.09300
H623        H  0.45682262  0.46467201  0.34395032     0.07100
H624        H  0.47248372  0.48981807  0.32238520     0.08300
H625        H  0.46207724  0.46410720  0.30367826     0.07400
H626        H  0.37930877  0.48127517  0.30311232     0.02200
H627        H  0.36549994  0.45532309  0.32286447     0.02700
H628        H  0.36845236  0.45663478  0.28121585     0.06200
H629        H  0.37723534  0.44092982  0.40851517     0.05200
H630        H  0.40035854  0.44830235  0.38478201    -0.00600
H631        H  0.37470772  0.43979200  0.36683841     0.00900
H632        H  0.42378679  0.54796275  0.36196519     0.04600
H633        H  0.42598847  0.54859738  0.40364532     0.06500
H634        H  0.40092968  0.54179727  0.38516262     0.07400
C635        C  0.39659741  0.46680708  0.13058864    -0.22200
C636        C  0.40993512  0.47669772  0.10443509     0.09700
C637        C  0.43000192  0.47883166  0.10243183     0.10100
C638        C  0.43639188  0.47113153  0.12683430    -0.17200
C639        C  0.42314495  0.46123598  0.15309407    -0.27600
C640        C  0.40300554  0.45913771  0.15517558     0.18500
C641        C  0.40285260  0.48484205  0.07914899     0.12400
C642        C  0.44456853  0.48903487  0.07437640    -0.11900
H643        H  0.45178288  0.47268497  0.12532172     0.12700
C644        C  0.38833240  0.44985647  0.18328653    -0.22800
H645        H  0.38126174  0.46536677  0.13200895     0.08400
C646        C  0.38878702  0.47091963  0.05549605     0.04700
C647        C  0.38511746  0.47985357  0.02952988    -0.20000
C648        C  0.39529398  0.50238758  0.02664084    -0.07800
C649        C  0.40906482  0.51631095  0.05081216     0.13400
C650        C  0.41231024  0.50723064  0.07703328    -0.22700
C651        C  0.37819318  0.44674884  0.05727630    -0.05800
H652        H  0.37451720  0.46921239  0.01107854     0.14900
C653        C  0.42182043  0.54077021  0.04913889    -0.16000
H654        H  0.42329922  0.51782097  0.09522717     0.09300
H655        H  0.37235000  0.43519071  0.17639274     0.07100
H656        H  0.38573053  0.46211413  0.19274989     0.08300
H657        H  0.39506192  0.44533939  0.20237371     0.07400
H658        H  0.44975074  0.50615973  0.07190817     0.02200
H659        H  0.43567027  0.47987175  0.05308918     0.02700
H660        H  0.45944447  0.48897880  0.07633281     0.06200
H661        H  0.36781507  0.43823623  0.03664289     0.05200
H662        H  0.36777801  0.44011370  0.07836963    -0.00600
H663        H  0.39087612  0.44326015  0.05846239     0.00900
H664        H  0.41632139  0.54686829  0.06792375     0.04600
H665        H  0.42039209  0.54702794  0.02659058     0.06500
H666        H  0.43938583  0.54769835  0.05251712     0.07400
O667        O  0.44051292  0.41649717  0.68876221    -0.71600
O668        O  0.41859742  0.43555306  0.75093879    -0.71800
O669        O  0.41907809  0.43598257  0.68839749    -0.71600
O670        O  0.43999892  0.41621253  0.75112619    -0.71600
O671        O  0.47112195  0.44753608  0.75066725    -0.71600
O672        O  0.44972063  0.46776230  0.68976200    -0.71600
O673        O  0.44981905  0.46680279  0.75227444    -0.71600
O674        O  0.47102518  0.44842020  0.68828947    -0.71700
V675        V  0.43012715  0.42666304  0.71976069     1.35200
V676        V  0.45979723  0.45701941  0.72020412     1.35200
C677        C  0.45952313  0.42921310  0.67807931     0.77700
C678        C  0.43076056  0.45420220  0.76283523     0.77700
C679        C  0.43084627  0.45533055  0.67860304     0.77600
C680        C  0.45902569  0.42863111  0.76185753     0.77600
C681        C  0.84951705  0.48561209  0.51909486     0.80400
N682        N  0.86059833  0.49037448  0.54635956    -0.77900
C683        C  0.88269365  0.50286446  0.54631754     0.82900
N684        N  0.89362189  0.50984960  0.51891039    -0.77800
C685        C  0.88232633  0.50085872  0.98888564     0.83000
N686        N  0.86028691  0.48907994  0.98801572    -0.79500
C687        C  0.53287752  0.37502244  0.96958768     0.80400
N688        N  0.52713114  0.37939117  0.94196442    -0.77900
C689        C  0.51274101  0.38516750  0.94135760     0.82900
N690        N  0.50447808  0.38688085  0.96847941    -0.77800
C691        C  0.51153015  0.38502122  0.49754771     0.83000
N692        N  0.52584578  0.37923922  0.49906148    -0.79500
C693        C  0.65344925  0.35194845  0.98311217     0.80400
N694        N  0.67469875  0.36872815  0.98472156    -0.77900
C695        C  0.69042756  0.36487068  0.98781909     0.82900
N696        N  0.68472268  0.34408509  0.99020350    -0.77800
C697        C  0.66349806  0.32718390  0.98863869     0.83000
N698        N  0.64794487  0.33127335  0.98570471    -0.79500
C699        C  0.61324576  0.17143034  0.01188092     0.80400
N700        N  0.60614656  0.15989112  0.98490751    -0.77900
C701        C  0.59539319  0.13792377  0.98543397     0.82900
N702        N  0.59166210  0.12761871  0.01309844    -0.77800
C703        C  0.59718121  0.13855013  0.54205847     0.83000
N704        N  0.60762159  0.16049116  0.54208218    -0.79500
O705        O  0.52404424  0.02416520  0.79489886    -0.71600
O706        O  0.50761928  0.98368080  0.72934477    -0.71800
O707        O  0.50437489  0.98093752  0.79146615    -0.71600
O708        O  0.52742039  0.02689960  0.73261985    -0.71600
O709        O  0.55898249  0.03160317  0.73615520    -0.71600
O710        O  0.53565290  0.98500051  0.79350998    -0.71600
O711        O  0.53934275  0.98860224  0.73139509    -0.71600
O712        O  0.55519943  0.02797201  0.79830019    -0.71700
V713        V  0.51646745  0.00401320  0.76212901     1.35200
V714        V  0.54667787  0.00821323  0.76479353     1.35200
C715        C  0.54228380  0.03266519  0.80811494     0.77700
C716        C  0.52078615  0.97949462  0.71896636     0.77700
C717        C  0.51607858  0.97504225  0.80238165     0.77600
C718        C  0.54719642  0.03717614  0.72456301     0.77600
O719        O  0.02339547  0.52949478  0.73398496    -0.71600
O720        O  0.98395141  0.51871862  0.79875711    -0.71800
O721        O  0.98260452  0.51944701  0.73664141    -0.71600
O722        O  0.02474779  0.52873517  0.79600365    -0.71600
O723        O  0.03638666  0.56274650  0.79888238    -0.71600
O724        O  0.99609615  0.55400162  0.73625840    -0.71600
O725        O  0.99556077  0.55282277  0.79856327    -0.71600
O726        O  0.03699344  0.56393962  0.73655992    -0.71700
V727        V  0.00391387  0.52476813  0.76634770     1.35200
V728        V  0.01603624  0.55774349  0.76753391     1.35200
C729        C  0.03733543  0.54857680  0.72471809     0.77700
C730        C  0.98265672  0.53383526  0.80911620     0.77700
C731        C  0.98203850  0.53506669  0.72650445     0.77600
C732        C  0.03772418  0.54730284  0.80767902     0.77600
C733        C  0.38471430  0.53338169  0.46837550     0.80400
N734        N  0.38816764  0.52640869  0.49553447    -0.77900
C735        C  0.39399279  0.51212166  0.49533234     0.82900
N736        N  0.39613795  0.50464889  0.46781292    -0.77800
C737        C  0.39077779  0.51035570  0.94267143     0.83000
N738        N  0.38523497  0.52492293  0.94333593    -0.79500
C739        C  0.35332004  0.64625196  0.00569583     0.80400
N740        N  0.33211329  0.63820723  0.01149638    -0.77900
C741        C  0.32589784  0.65173580  0.01831650     0.82900
N742        N  0.34094542  0.67350610  0.01869487    -0.77800
C743        C  0.36214825  0.68171620  0.01248507     0.83000
N744        N  0.36830947  0.66807046  0.00590800    -0.79500
C745        C  0.16611244  0.58959361  0.02007055     0.80400
N746        N  0.15428807  0.58638319  0.54114959    -0.77900
C747        C  0.13258582  0.57755587  0.53978614     0.82900
N748        N  0.12312670  0.57209660  0.01456729    -0.77800
C749        C  0.13498511  0.57547797  0.98865711     0.83000
N750        N  0.15660471  0.58421388  0.99143392    -0.79500
C751        C  0.45642184  0.84379515  0.01539301     0.80400
N752        N  0.46022318  0.85340715  0.98703566    -0.77900
C753        C  0.47193103  0.87536540  0.98476804     0.82900
N754        N  0.47940957  0.88758783  0.01092650    -0.77800
C755        C  0.47363467  0.87824945  0.53726069     0.83000
N756        N  0.46184451  0.85624423  0.53911455    -0.79500
C757        C  0.40670210  0.74005824  0.99212792    -0.22200
C758        C  0.40603801  0.75094234  0.51584773     0.09700
C759        C  0.39153026  0.73846650  0.54014101     0.10100
C760        C  0.37767173  0.71588395  0.53673847    -0.17200
C761        C  0.37838223  0.70529191  0.01420462    -0.27600
C762        C  0.39212333  0.71751771  0.98890640     0.18500
C763        C  0.41863610  0.77484977  0.51628020     0.12400
C764        C  0.39029801  0.74903923  0.56922622    -0.11900
H765        H  0.36640088  0.70618997  0.55529472     0.12700
C766        C  0.39099450  0.70772249  0.95764724    -0.22800
H767        H  0.41689224  0.74962823  0.97258977     0.08400
C768        C  0.43981101  0.78767897  0.52873624     0.04700
C769        C  0.45089988  0.81038301  0.52811933    -0.20000
C770        C  0.44334631  0.82002844  0.01778018    -0.12300
C771        C  0.42165474  0.80717941  0.00691126     0.13400
C772        C  0.41046283  0.78455735  0.00782597    -0.22700
C773        C  0.45077664  0.77743117  0.54199520    -0.05800
H774        H  0.46729143  0.82043937  0.53732436     0.14900
C775        C  0.40956466  0.81664839  0.99501961    -0.16000
H776        H  0.39383616  0.77459670  0.99942789     0.09300
H777        H  0.40687068  0.71016916  0.95244509     0.07100
H778        H  0.38751682  0.71592478  0.93934402     0.08300
H779        H  0.37809532  0.69014353  0.95621365     0.07400
H780        H  0.38577646  0.76050998  0.56311385     0.02200
H781        H  0.40630604  0.75807654  0.58113994     0.02700
H782        H  0.37796421  0.73686968  0.58583303     0.06200
H783        H  0.46741940  0.78985736  0.55052845     0.05200
H784        H  0.45209762  0.76766911  0.52374939    -0.00600
H785        H  0.44115696  0.76667119  0.56180210     0.00900
H786        H  0.40507376  0.81203326  0.97025618     0.04600
H787        H  0.41903977  0.83457897  0.99679668     0.06500
H788        H  0.39445807  0.81004614  0.00886460     0.07400
C789        C  0.22559688  0.62275068  0.54136834    -0.22200
C790        C  0.23401628  0.61457276  0.02639606     0.09700
C791        C  0.21970598  0.59582771  0.00877616     0.10100
C792        C  0.19763218  0.58811470  0.00726200    -0.17200
C793        C  0.18953358  0.59865197  0.02312740    -0.27600
C794        C  0.20377732  0.61603449  0.54018375     0.18500
C795        C  0.25776680  0.62484380  0.02550401     0.12400
C796        C  0.22783681  0.58419900  0.99124588    -0.11900
H797        H  0.18660246  0.57374420  0.99360802     0.12700
C798        C  0.19672290  0.62612015  0.56343111    -0.22800
H799        H  0.23626181  0.63414925  0.55914598     0.08400
C800        C  0.27103738  0.64178876  0.00432516     0.04700
C801        C  0.29340596  0.65076863  0.00341269    -0.20000
C802        C  0.30270293  0.64291403  0.02280142    -0.12300
C803        C  0.28797714  0.62241950  0.53117857     0.13400
C804        C  0.26578789  0.61445222  0.53283757    -0.22700
C805        C  0.26146329  0.64996647  0.98213126    -0.05800
H806        H  0.30359613  0.66351610  0.98675276     0.14900
C807        C  0.29574481  0.60989533  0.54710356    -0.16000
H808        H  0.25448764  0.59924474  0.54469465     0.09300
H809        H  0.20857439  0.64404386  0.56329653     0.07100
H810        H  0.19631975  0.61992423  0.58712743     0.08300
H811        H  0.18072149  0.62319681  0.55816050     0.07400
H812        H  0.23509443  0.57850104  0.00779736     0.02200
H813        H  0.24037382  0.59538868  0.97405123     0.02700
H814        H  0.21450570  0.56984489  0.97850676     0.06200
H815        H  0.27407715  0.66303280  0.96675486     0.05200
H816        H  0.25363270  0.65661214  0.99540731    -0.00600
H817        H  0.24910494  0.63643090  0.96716212     0.00900
H818        H  0.28244320  0.59576855  0.56031070     0.04600
H819        H  0.30895032  0.62061036  0.56377180     0.06500
H820        H  0.30177514  0.60350630  0.52962438     0.07400
C821        C  0.38345518  0.61828052  0.49783761    -0.22200
C822        C  0.36783923  0.59970103  0.98260056     0.09700
C823        C  0.35003261  0.59862259  0.96896109     0.10100
C824        C  0.34615651  0.61445464  0.97649239    -0.17200
C825        C  0.35949161  0.63114875  0.99769552    -0.27600
C826        C  0.37895486  0.63365126  0.50575416     0.18500
C827        C  0.37120294  0.58215741  0.97805159     0.12400
C828        C  0.33501593  0.58062683  0.94677026    -0.11900
H829        H  0.33243086  0.61363982  0.96604301     0.12700
C830        C  0.39290993  0.64991258  0.53066031    -0.22800
H831        H  0.39681960  0.61882931  0.50911166     0.08400
C832        C  0.38620704  0.58386401  0.95614753     0.04700
C833        C  0.38893691  0.56674379  0.95334360    -0.20000
C834        C  0.37921039  0.54956889  0.46896539    -0.12300
C835        C  0.36401833  0.54823560  0.49044884     0.13400
C836        C  0.36171752  0.56559313  0.49271090    -0.22700
C837        C  0.39941593  0.60381212  0.93610367    -0.05800
H838        H  0.40091217  0.56821512  0.93717465     0.14900
C839        C  0.34938259  0.52859164  0.51057910    -0.16000
H840        H  0.35031536  0.56479234  0.50939600     0.09300
H841        H  0.40989016  0.66069627  0.52205539     0.07100
H842        H  0.39286961  0.64115469  0.55164351     0.08300
H843        H  0.38721928  0.66008181  0.53831696     0.07400
H844        H  0.32708334  0.56468114  0.95874142     0.02200
H845        H  0.34443879  0.58084939  0.92653012     0.02700
H846        H  0.32202731  0.58237356  0.93792001     0.06200
H847        H  0.41035631  0.60249005  0.92007811     0.05200
H848        H  0.40959845  0.61831376  0.95104305    -0.00600
H849        H  0.38837825  0.60610415  0.92187062     0.00900
H850        H  0.35373429  0.53291762  0.53544573     0.04600
H851        H  0.35010855  0.51451546  0.50486498     0.06500
H852        H  0.33220433  0.52315335  0.50715456     0.07400
C853        C  0.11921026  0.57843224  0.90541249    -0.22200
C854        C  0.09728102  0.56092541  0.90567314     0.09700
C855        C  0.08866489  0.54708645  0.93174896     0.10100
C856        C  0.10205785  0.55143414  0.95745771    -0.17200
C857        C  0.12371485  0.56967480  0.95821113    -0.27600
C858        C  0.13257242  0.58314204  0.93153776     0.18500
C859        C  0.08302559  0.55836125  0.87965402     0.12400
C860        C  0.06508500  0.52829863  0.93297648    -0.11900
H861        H  0.09526655  0.54095399  0.97770567     0.12700
C862        C  0.15551837  0.60313377  0.93104040    -0.22800
H863        H  0.12557606  0.58898594  0.88519290     0.08400
C864        C  0.07300928  0.56978053  0.87937230     0.04700
C865        C  0.05859068  0.56603300  0.85528778    -0.20000
C866        C  0.05371129  0.55090243  0.83168700    -0.12300
C867        C  0.06410341  0.53970896  0.83174869     0.13400
C868        C  0.07864501  0.54360025  0.85585201    -0.22700
C869        C  0.07723698  0.58561317  0.90484749    -0.05800
H870        H  0.05068981  0.57462438  0.85529789     0.14900
C871        C  0.06059352  0.52425600  0.80609156    -0.16000
H872        H  0.08651017  0.53497609  0.85635446     0.09300
H873        H  0.15934022  0.61215136  0.90872315     0.07100
H874        H  0.16721585  0.59845237  0.93384653     0.08300
H875        H  0.15777712  0.61426432  0.95014965     0.07400
H876        H  0.06155321  0.51677504  0.91379206     0.02200
H877        H  0.05449694  0.53436329  0.93050169     0.02700
H878        H  0.06094465  0.51929604  0.95535548     0.06200
H879        H  0.06794892  0.59303175  0.90119563     0.05200
H880        H  0.09481869  0.59888452  0.90548047    -0.00600
H881        H  0.07233434  0.57712670  0.92767472     0.00900
H882        H  0.06474884  0.53281055  0.78336161     0.04600
H883        H  0.04342416  0.51002052  0.80594080     0.06500
H884        H  0.07101471  0.51802818  0.80908801     0.07400
C885        C  0.07351873  0.54287503  0.66824943    -0.22200
C886        C  0.08386622  0.56282820  0.65279905     0.09700
C887        C  0.07957980  0.57831198  0.66147297     0.10100
C888        C  0.06472539  0.57334499  0.68550930    -0.17200
C889        C  0.05361259  0.55300530  0.70052447    -0.27600
C890        C  0.05833710  0.53762277  0.69193961     0.18500
C891        C  0.09668527  0.56587997  0.62477050     0.12400
C892        C  0.09008446  0.59973023  0.64459952    -0.11900
H893        H  0.06129260  0.58521970  0.69187305     0.12700
C894        C  0.04755148  0.51560542  0.70715876    -0.22800
H895        H  0.07684085  0.53106990  0.66091644     0.08400
C896        C  0.11942202  0.57664543  0.62545071     0.04700
C897        C  0.13061217  0.57993128  0.59745244    -0.20000
C898        C  0.11950069  0.57239017  0.56880339    -0.12300
C899        C  0.09632228  0.56054078  0.56881338     0.13400
C900        C  0.08540407  0.55765479  0.59682679    -0.22700
C901        C  0.13176583  0.58447109  0.65568903    -0.05800
H902        H  0.14818263  0.58866925  0.59807816     0.14900
C903        C  0.08253601  0.55048425  0.54001783    -0.16000
H904        H  0.06781383  0.54903726  0.59702160     0.09300
H905        H  0.05410107  0.50635627  0.69824281     0.07100
H906        H  0.02982572  0.50576826  0.70224144     0.08300
H907        H  0.05039295  0.51748805  0.73263951     0.07400
H908        H  0.08560010  0.59683950  0.61957568     0.02200
H909        H  0.10804201  0.60897278  0.64673805     0.02700
H910        H  0.08479999  0.60991142  0.65421387     0.06200
H911        H  0.14951124  0.59245082  0.65212339     0.05200
H912        H  0.12583136  0.57046559  0.67165938    -0.00600
H913        H  0.12931092  0.59637205  0.66685610     0.00900
H914        H  0.08599852  0.53919548  0.52919550     0.04600
H915        H  0.06485116  0.54088041  0.54540086     0.06500
H916        H  0.08564820  0.56331919  0.52330595     0.07400
C917        C  0.49708974  0.90287624  0.61673259    -0.22200
C918        C  0.49266010  0.91883637  0.61786530     0.09700
C919        C  0.48198563  0.92129074  0.59281587     0.10100
C920        C  0.47597421  0.90766373  0.56696250    -0.17200
C921        C  0.48046066  0.89170112  0.56553572    -0.27600
C922        C  0.49136528  0.88937512  0.59064357     0.18500
C923        C  0.50022380  0.93361024  0.64479107     0.12400
C924        C  0.47695901  0.93829373  0.59340388    -0.11900
H925        H  0.46762244  0.90942627  0.54773280     0.12700
C926        C  0.49824148  0.87378305  0.59027002    -0.22800
H927        H  0.50559638  0.90135852  0.63598192     0.08400
C928        C  0.48729524  0.92837826  0.67165618     0.04700
C929        C  0.49453967  0.94373088  0.69560206    -0.20000
C930        C  0.51440641  0.96409585  0.69315732    -0.12300
C931        C  0.52734548  0.96928952  0.66608950     0.13400
C932        C  0.52014110  0.95380706  0.64239390    -0.22700
C933        C  0.46580468  0.90674822  0.67478186    -0.05800
H934        H  0.48467190  0.93984184  0.71635129     0.14900
C935        C  0.54815890  0.99122408  0.66047353    -0.16000
H936        H  0.52979389  0.95776638  0.62138451     0.09300
H937        H  0.48969813  0.86160735  0.60914457     0.07100
H938        H  0.51605902  0.88289605  0.59432086     0.08300
H939        H  0.49495339  0.86511224  0.56790192     0.07400
H940        H  0.49229395  0.95471068  0.59523086     0.02200
H941        H  0.46641743  0.93550404  0.61369622     0.02700
H942        H  0.46835877  0.93786616  0.57197866     0.06200
H943        H  0.45773822  0.90529111  0.69731466     0.05200
H944        H  0.46839505  0.89345677  0.67347027    -0.00600
H945        H  0.45473888  0.90474154  0.65570297     0.00900
H946        H  0.56190679  0.98935581  0.65808781     0.04600
H947        H  0.55210430  0.00305850  0.67920773     0.06500
H948        H  0.54670334  0.99827541  0.63858480     0.07400
C949        C  0.47869619  0.92430979  0.85106361    -0.22200
C950        C  0.49335465  0.92639486  0.87363097     0.09700
C951        C  0.51547981  0.94373009  0.87183749     0.10100
C952        C  0.52235703  0.95901755  0.84790463    -0.17200
C953        C  0.50762268  0.95754006  0.82586729    -0.27600
C954        C  0.48553072  0.93969308  0.82709778     0.18500
C955        C  0.48512802  0.91124340  0.90030118     0.12400
C956        C  0.53173129  0.94648284  0.89570329    -0.11900
H957        H  0.53929240  0.97257620  0.84694340     0.12700
C958        C  0.46918701  0.93643717  0.80303638    -0.22800
H959        H  0.46176850  0.91079280  0.85261054     0.08400
C960        C  0.47468017  0.91394348  0.92547627     0.04700
C961        C  0.46986096  0.90128688  0.95226101    -0.20000
C962        C  0.47544176  0.88618047  0.95455488    -0.12300
C963        C  0.48548955  0.88312700  0.92899629     0.13400
C964        C  0.48986774  0.89550837  0.90193289    -0.22700
C965        C  0.46938897  0.93074803  0.92456360    -0.05800
H966        H  0.46216457  0.90356855  0.97189797     0.14900
C967        C  0.49317251  0.86820146  0.92994130    -0.16000
H968        H  0.49808119  0.89369761  0.88254685     0.09300
H969        H  0.46666177  0.94975662  0.80442411     0.07100
H970        H  0.45311015  0.92090512  0.80664910     0.08300
H971        H  0.47504722  0.93604497  0.77941770     0.07400
H972        H  0.53288038  0.93225016  0.89515373     0.02200
H973        H  0.52656319  0.94795829  0.91928777     0.02700
H974        H  0.54824370  0.96125508  0.89121366     0.06200
H975        H  0.46164747  0.93099946  0.94654052     0.05200
H976        H  0.45794050  0.92712927  0.90519510    -0.00600
H977        H  0.48453112  0.94713932  0.92104264     0.00900
H978        H  0.48452475  0.85546280  0.91184804     0.04600
H979        H  0.49059028  0.86013921  0.95271216     0.06500
H980        H  0.51091710  0.87770613  0.92504002     0.07400
C981        C  0.58980680  0.11577423  0.90351508    -0.22200
C982        C  0.56964676  0.09578326  0.90604573     0.09700
C983        C  0.55736602  0.09050385  0.93360540     0.10100
C984        C  0.56594050  0.10503852  0.95861924    -0.17200
C985        C  0.58651276  0.12477399  0.95673549    -0.27600
C986        C  0.59842569  0.13044101  0.92854694     0.18500
C987        C  0.56243633  0.07980921  0.88061415     0.12400
C988        C  0.53533781  0.06940886  0.93671592    -0.11900
H989        H  0.55665095  0.10078485  0.98003216     0.12700
C990        C  0.62059581  0.15128161  0.92513382    -0.22800
H991        H  0.59908325  0.11959022  0.88216714     0.08400
C992        C  0.55167600  0.08042993  0.85405561     0.04700
C993        C  0.54479722  0.06447221  0.83102277    -0.20000
C994        C  0.54852151  0.04801115  0.83407643    -0.12300
C995        C  0.55873533  0.04708084  0.86128863     0.13400
C996        C  0.56591296  0.06326523  0.88390530    -0.22700
C997        C  0.54748479  0.09788587  0.85013819    -0.05800
H998        H  0.53685659  0.06508459  0.81026599     0.14900
C999        C  0.56149596  0.02886300  0.86812075    -0.16000
H1000       H  0.57384133  0.06269698  0.90472388     0.09300
H1001       H  0.62791700  0.15249292  0.90202062     0.07100
H1002       H  0.63169836  0.15211949  0.94324598     0.08300
H1003       H  0.61930538  0.16536633  0.92740918     0.07400
H1004       H  0.53689379  0.05549244  0.93426389     0.02200
H1005       H  0.52430523  0.06840407  0.91833082     0.02700
H1006       H  0.52778214  0.06799280  0.95970263     0.06200
H1007       H  0.53873395  0.09591220  0.82809876     0.05200
H1008       H  0.56317614  0.11408371  0.84976437    -0.00600
H1009       H  0.53741205  0.09721262  0.86979879     0.00900
H1010       H  0.57908915  0.03536508  0.86883288     0.04600
H1011       H  0.55337075  0.01545788  0.85102055     0.06500
H1012       H  0.55417901  0.02162440  0.89115577     0.07400
C1013       C  0.59906827  0.11732687  0.62187384    -0.22200
C1014       C  0.57757010  0.09912686  0.62435112     0.09700
C1015       C  0.56260718  0.09438681  0.60034229     0.10100
C1016       C  0.56952504  0.10798194  0.57423063    -0.17200
C1017       C  0.59112689  0.12605121  0.57132804    -0.27600
C1018       C  0.60620749  0.13069503  0.59537266     0.18500
C1019       C  0.57129091  0.08438922  0.65130323     0.12400
C1020       C  0.53951765  0.07464392  0.60187751    -0.11900
H1021       H  0.55803164  0.10432306  0.55570451     0.12700
C1022       C  0.63008673  0.14861068  0.59330558    -0.22800
H1023       H  0.61054837  0.12063801  0.64025623     0.08400
C1024       C  0.57686217  0.06915519  0.65263173     0.04700
C1025       C  0.56942100  0.05456025  0.67762372    -0.20000
C1026       C  0.55620886  0.05457276  0.70098849    -0.12300
C1027       C  0.55130215  0.07041563  0.70022601     0.13400
C1028       C  0.55878027  0.08501188  0.67514688    -0.22700
C1029       C  0.59000797  0.06780075  0.62715272    -0.05800
H1030       H  0.57336124  0.04258738  0.67835912     0.14900
C1031       C  0.53894903  0.07298142  0.72572398    -0.16000
H1032       H  0.55480127  0.09696546  0.67412045     0.09300
H1033       H  0.63980842  0.14158316  0.59607649     0.07100
H1034       H  0.63445461  0.16051762  0.61227305     0.08300
H1035       H  0.63487252  0.15736345  0.57080716     0.07400
H1036       H  0.53113472  0.07574044  0.62244255     0.02200
H1037       H  0.53950819  0.05975492  0.60377736     0.02700
H1038       H  0.53009956  0.07312319  0.58079896     0.06200
H1039       H  0.59245771  0.05460017  0.63152892     0.05200
H1040       H  0.60626866  0.08335240  0.62556232    -0.00600
H1041       H  0.58144990  0.06450754  0.60454492     0.00900
H1042       H  0.54879780  0.08995753  0.73444326     0.04600
H1043       H  0.53541105  0.06233318  0.74605947     0.06500
H1044       H  0.52337675  0.06951344  0.71633402     0.07400
C1045       C  0.64804184  0.23105821  0.98938585    -0.22200
C1046       C  0.63773241  0.23933925  0.51179586     0.09700
C1047       C  0.62039940  0.22521297  0.53192632     0.10100
C1048       C  0.61307135  0.20327063  0.53336557    -0.17200
C1049       C  0.62337729  0.19505312  0.01137506    -0.27600
C1050       C  0.64099323  0.20923272  0.99144280     0.18500
C1051       C  0.64503332  0.26220681  0.50779391     0.12400
C1052       C  0.60945062  0.23325741  0.55142323    -0.11900
H1053       H  0.59936815  0.19222946  0.54820225     0.12700
C1054       C  0.65307330  0.20213153  0.97263625    -0.22800
H1055       H  0.66125411  0.24191842  0.97371119     0.08400
C1056       C  0.66321876  0.27926962  0.52378958     0.04700
C1057       C  0.66934318  0.30067139  0.51908248    -0.20000
C1058       C  0.65737525  0.30457724  0.99145748    -0.12300
C1059       C  0.63948060  0.28695964  0.97520432     0.13400
C1060       C  0.63334077  0.26576003  0.98153902    -0.22700
C1061       C  0.67591570  0.27481267  0.54607422    -0.05800
H1062       H  0.68296223  0.31373971  0.53205015     0.14900
C1063       C  0.62707508  0.28967150  0.94993276    -0.16000
H1064       H  0.61950777  0.25221104  0.96949659     0.09300
H1065       H  0.67068248  0.21265697  0.97832203     0.07100
H1066       H  0.65094764  0.20375074  0.94743237     0.08300
H1067       H  0.64764796  0.18518435  0.97752452     0.07400
H1068       H  0.60222978  0.23964081  0.53610632     0.02200
H1069       H  0.62156463  0.24642664  0.56707497     0.02700
H1070       H  0.59623213  0.22010327  0.56602888     0.06200
H1071       H  0.68957952  0.28998280  0.55688884     0.05200
H1072       H  0.68280887  0.26695788  0.53350184    -0.00600
H1073       H  0.66503792  0.26384983  0.56494640     0.00900
H1074       H  0.62598585  0.28031270  0.92905002     0.04600
H1075       H  0.63501578  0.30664867  0.94197298     0.06500
H1076       H  0.61034074  0.28331609  0.95817062     0.07400
C1077       C  0.56798715  0.35371364  0.95334172    -0.22200
C1078       C  0.58593678  0.36728996  0.48098771     0.09700
C1079       C  0.58531580  0.38220668  0.50030216     0.10100
C1080       C  0.56810832  0.38474752  0.49718711    -0.17200
C1081       C  0.55011526  0.37096884  0.97090819    -0.27600
C1082       C  0.55033763  0.35569958  0.95155535     0.18500
C1083       C  0.60347386  0.36369656  0.48387145     0.12400
C1084       C  0.60287668  0.39550749  0.52401623    -0.11900
H1085       H  0.56777353  0.39646130  0.51172524     0.12700
C1086       C  0.53192531  0.34051104  0.92999438    -0.22800
H1087       H  0.56825329  0.34198495  0.93873119     0.08400
C1088       C  0.60142819  0.34774118  0.50410037     0.04700
C1089       C  0.61848819  0.34489074  0.50610577    -0.20000
C1090       C  0.63620971  0.35593039  0.97980539    -0.12300
C1091       C  0.63768282  0.37138375  0.95868982     0.13400
C1092       C  0.62089228  0.37470906  0.95797575    -0.22700
C1093       C  0.58119346  0.33367160  0.52339655    -0.05800
H1094       H  0.61706367  0.33283037  0.52201472     0.14900
C1095       C  0.65590068  0.38383009  0.93542076    -0.16000
H1096       H  0.62193466  0.38659153  0.94206551     0.09300
H1097       H  0.52613979  0.32347869  0.93548038     0.07100
H1098       H  0.53775450  0.34408952  0.90552265     0.08300
H1099       H  0.51770417  0.34154915  0.93225301     0.07400
H1100       H  0.61886502  0.40569855  0.51213468     0.02200
H1101       H  0.60356740  0.38462317  0.54092209     0.02700
H1102       H  0.59988389  0.40641839  0.53721508     0.06200
H1103       H  0.58225927  0.32196674  0.53797734     0.05200
H1104       H  0.56685035  0.32426921  0.50787870    -0.00600
H1105       H  0.57872001  0.34394992  0.53907836     0.00900
H1106       H  0.64891978  0.38136094  0.91170716     0.04600
H1107       H  0.66711177  0.37851928  0.93443419     0.06500
H1108       H  0.66535369  0.40143200  0.94098450     0.07400
C1109       C  0.90246516  0.49862313  0.90826412    -0.22200
C1110       C  0.92354850  0.51752304  0.90888078     0.09700
C1111       C  0.93056220  0.53156781  0.93466018     0.10100
C1112       C  0.91640627  0.52603252  0.95989903    -0.17200
C1113       C  0.89539962  0.50671598  0.95997333    -0.27600
C1114       C  0.88824619  0.49291404  0.93352999     0.18500
C1115       C  0.93849913  0.52146801  0.88315159     0.12400
C1116       C  0.95312423  0.55213379  0.93574177    -0.11900
H1117       H  0.92193046  0.53670588  0.97992674     0.12700
C1118       C  0.86622555  0.47164229  0.93213353    -0.22800
H1119       H  0.89740022  0.48797187  0.88825164     0.08400
C1120       C  0.95087801  0.51247353  0.88374474     0.04700
C1121       C  0.96495266  0.51661062  0.85894574    -0.20000
C1122       C  0.96675760  0.52938223  0.83352715    -0.12300
C1123       C  0.95361552  0.53764224  0.83237001     0.13400
C1124       C  0.93990367  0.53387229  0.85758117    -0.22700
C1125       C  0.94925758  0.49858538  0.91060579    -0.05800
H1126       H  0.97484565  0.51010265  0.85960118     0.14900
C1127       C  0.95272690  0.54949624  0.80452898    -0.16000
H1128       H  0.92991245  0.54027257  0.85704260     0.09300
H1129       H  0.86411954  0.46254000  0.91043717     0.07100
H1130       H  0.85318672  0.47464006  0.93256024     0.08300
H1131       H  0.86427094  0.46119758  0.95211119     0.07400
H1132       H  0.95536061  0.56284178  0.91598208     0.02200
H1133       H  0.96543603  0.54816831  0.93405969     0.02700
H1134       H  0.95603436  0.56124286  0.95771555     0.06200
H1135       H  0.96011325  0.49288892  0.90738216     0.05200
H1136       H  0.93229091  0.48407801  0.91272947    -0.00600
H1137       H  0.95395421  0.50804530  0.93256127     0.00900
H1138       H  0.93562396  0.54105427  0.79642425     0.04600
H1139       H  0.96236889  0.55006549  0.78444495     0.06500
H1140       H  0.95865740  0.56637125  0.81121737     0.07400
C1141       C  0.90774025  0.52285475  0.62650747    -0.22200
C1142       C  0.92185308  0.51598828  0.62723106     0.09700
C1143       C  0.92194503  0.50367456  0.60240570     0.10100
C1144       C  0.90870059  0.49947556  0.57650737    -0.17200
C1145       C  0.89498765  0.50683543  0.57524374    -0.27600
C1146       C  0.89417545  0.51836433  0.60078336     0.18500
C1147       C  0.93681185  0.52219309  0.65384239     0.12400
C1148       C  0.93599722  0.49496866  0.60331137    -0.11900
H1149       H  0.90904059  0.49038983  0.55705339     0.12700
C1150       C  0.87994498  0.52687130  0.60132135    -0.22800
H1151       H  0.90763568  0.53214005  0.64586551     0.08400
C1152       C  0.95821615  0.54103829  0.65287750     0.04700
C1153       C  0.97240145  0.54538181  0.67767942    -0.20000
C1154       C  0.96561177  0.53123355  0.70327047    -0.12300
C1155       C  0.94369523  0.51304707  0.70497625     0.13400
C1156       C  0.92968628  0.50858939  0.67993232    -0.22700
C1157       C  0.96614723  0.55628054  0.62541214    -0.05800
H1158       H  0.98908977  0.55943327  0.67654116     0.14900
C1159       C  0.93425989  0.49834915  0.73304329    -0.16000
H1160       H  0.91306859  0.49437208  0.68072203     0.09300
H1161       H  0.89024463  0.54477753  0.60442598     0.07100
H1162       H  0.86837757  0.51944910  0.62114157     0.08300
H1163       H  0.87042310  0.52339105  0.57969971     0.07400
H1164       H  0.93148793  0.48408991  0.62376598     0.02200
H1165       H  0.95339963  0.50856821  0.60512944     0.02700
H1166       H  0.93396172  0.48550934  0.58205278     0.06200
H1167       H  0.98330533  0.57026553  0.62841769     0.05200
H1168       H  0.95590947  0.56272292  0.62261764    -0.00600
H1169       H  0.96515846  0.54754299  0.60387242     0.00900
H1170       H  0.91947389  0.49733554  0.74093071     0.04600
H1171       H  0.94546623  0.50424463  0.75318887     0.06500
H1172       H  0.92964016  0.48180811  0.72671452     0.07400
C1173       C  0.78976114  0.45450983  0.98864065    -0.22200
C1174       C  0.78136145  0.43622998  0.51240833     0.09700
C1175       C  0.79475793  0.43364743  0.53246455     0.10100
C1176       C  0.81674088  0.45064818  0.53548006    -0.17200
C1177       C  0.82567854  0.47001155  0.51849204    -0.27600
C1178       C  0.81185647  0.47108085  0.99226667     0.18500
C1179       C  0.75822813  0.41856767  0.50791761     0.12400
C1180       C  0.78590850  0.41283308  0.55028491    -0.11900
H1181       H  0.82721276  0.44843540  0.55018160     0.12700
C1182       C  0.82079429  0.49171879  0.97388994    -0.22800
H1183       H  0.77995754  0.45665865  0.97235863     0.08400
C1184       C  0.74154813  0.41851110  0.52361968     0.04700
C1185       C  0.71985068  0.40120216  0.51889215    -0.20000
C1186       C  0.71346193  0.38325465  0.99011171    -0.12300
C1187       C  0.73049655  0.38329047  0.97514310     0.13400
C1188       C  0.75209709  0.40044505  0.98078597    -0.22700
C1189       C  0.74671870  0.43648967  0.54578625    -0.05800
H1190       H  0.70700832  0.40091285  0.53139160     0.14900
C1191       C  0.72671971  0.36617318  0.95216824    -0.16000
H1192       H  0.76522916  0.40042300  0.96977700     0.09300
H1193       H  0.81084277  0.49828923  0.97862422     0.07100
H1194       H  0.81998816  0.48818286  0.94862908     0.08300
H1195       H  0.83780851  0.50464186  0.98001513     0.07400
H1196       H  0.77984556  0.39910245  0.53380563     0.02200
H1197       H  0.77232841  0.40963877  0.56552885     0.02700
H1198       H  0.79855184  0.41360401  0.56515806     0.06200
H1199       H  0.73176923  0.43376060  0.55653342     0.05200
H1200       H  0.75518481  0.45223191  0.53316290    -0.00600
H1201       H  0.75739001  0.43744279  0.56472972     0.00900
H1202       H  0.73558194  0.37415000  0.93021791     0.04600
H1203       H  0.70943379  0.35471726  0.94571290     0.06500
H1204       H  0.73301084  0.35689226  0.96190477     0.07400
C1205       C  0.47465011  0.39641388  0.63106501    -0.22200
C1206       C  0.48298449  0.40916457  0.60413047     0.09700
C1207       C  0.48403911  0.42863111  0.60185124     0.10100
C1208       C  0.47667116  0.43496683  0.62679499    -0.17200
C1209       C  0.46798963  0.42207451  0.65363730    -0.27600
C1210       C  0.46726695  0.40270093  0.65608444     0.18500
C1211       C  0.49017929  0.40166360  0.57823791     0.12400
C1212       C  0.49264195  0.44250142  0.57294273    -0.11900
H1213       H  0.47719703  0.44979644  0.62506123     0.12700
C1214       C  0.45960508  0.38867939  0.68491363    -0.22800
H1215       H  0.47407502  0.38155165  0.63264275     0.08400
C1216       C  0.51182082  0.40768314  0.57601789     0.04700
C1217       C  0.51811401  0.40114572  0.54995333    -0.20000
C1218       C  0.50319018  0.38873203  0.52621787    -0.12300
C1219       C  0.48120128  0.38181334  0.52937273     0.13400
C1220       C  0.47506896  0.38863401  0.55522993    -0.22700
C1221       C  0.52827203  0.42128602  0.60086248    -0.05800
H1222       H  0.53493514  0.40640090  0.54756318     0.14900
C1223       C  0.46364350  0.36683188  0.50654149    -0.16000
H1224       H  0.45835587  0.38376616  0.55749015     0.09300
H1225       H  0.47267223  0.38688585  0.69322466     0.07100
H1226       H  0.44498606  0.37233892  0.67928568     0.08300
H1227       H  0.45557428  0.39552420  0.70444602     0.07400
H1228       H  0.48256818  0.43297769  0.55258249     0.02200
H1229       H  0.50973916  0.44793460  0.56874554     0.02700
H1230       H  0.49226047  0.45716159  0.57501803     0.06200
H1231       H  0.54450614  0.42462303  0.59542593     0.05200
H1232       H  0.52277556  0.41261726  0.62352442    -0.00600
H1233       H  0.53008035  0.43708736  0.60301755     0.00900
H1234       H  0.45012510  0.35252815  0.51919378     0.04600
H1235       H  0.46926389  0.36046141  0.48845762     0.06500
H1236       H  0.45723934  0.37550691  0.49502219     0.07400
C1237       C  0.46303224  0.40290210  0.83559066    -0.22200
C1238       C  0.48451498  0.40882024  0.83349633     0.09700
C1239       C  0.49748018  0.42096070  0.80778261     0.10100
C1240       C  0.48857984  0.42699803  0.78458361    -0.17200
C1241       C  0.46712914  0.42138802  0.78683199    -0.27600
C1242       C  0.45430004  0.40952342  0.81306576     0.18500
C1243       C  0.49353353  0.40377571  0.86007383     0.12400
C1244       C  0.52076732  0.42788640  0.80523573    -0.11900
H1245       H  0.49845044  0.43624428  0.76464384     0.12700
C1246       C  0.43202851  0.40475669  0.81946938    -0.22800
H1247       H  0.45336604  0.39396182  0.85585551     0.08400
C1248       C  0.49965063  0.41620429  0.88754425     0.04700
C1249       C  0.50643388  0.40996053  0.91324881    -0.20000
C1250       C  0.50739274  0.39165959  0.91214701    -0.12300
C1251       C  0.50197786  0.37962263  0.88418693     0.13400
C1252       C  0.49500832  0.38583574  0.85841690    -0.22700
C1253       C  0.49895125  0.43602544  0.88977508    -0.05800
H1254       H  0.51084549  0.41935563  0.93453110     0.14900
C1255       C  0.50260012  0.35979859  0.88173110    -0.16000
H1256       H  0.49025976  0.37644693  0.83710235     0.09300
H1257       H  0.43189825  0.41090420  0.84297042     0.07100
H1258       H  0.41971565  0.38693419  0.81891279     0.08300
H1259       H  0.42711322  0.41267306  0.80301085     0.07400
H1260       H  0.52139294  0.41333494  0.80459138     0.02200
H1261       H  0.53016056  0.43803596  0.82561685     0.02700
H1262       H  0.52869735  0.43754043  0.78379406     0.06200
H1263       H  0.50473013  0.44410571  0.91278333     0.05200
H1264       H  0.48202916  0.43138243  0.88652945    -0.00600
H1265       H  0.50954179  0.44793440  0.87152907     0.00900
H1266       H  0.49197596  0.34778766  0.89985311     0.04600
H1267       H  0.51954874  0.36448755  0.88473673     0.06500
H1268       H  0.49682326  0.35183506  0.85864816     0.07400
C1269       C  0.42814014  0.47829294  0.83887876    -0.22200
C1270       C  0.40842416  0.47642746  0.83543979     0.09700
C1271       C  0.39557463  0.46643298  0.80871765     0.10100
C1272       C  0.40305368  0.45886928  0.78551917    -0.17200
C1273       C  0.42303625  0.46112114  0.78867681    -0.27600
C1274       C  0.43545376  0.47038624  0.81612986     0.18500
C1275       C  0.40133510  0.48427654  0.86106464     0.12400
C1276       C  0.37410636  0.46385842  0.80474295    -0.11900
H1277       H  0.39348071  0.45152947  0.76460868     0.12700
C1278       C  0.45589150  0.47132830  0.82301856    -0.22800
H1279       H  0.43763029  0.48550474  0.85990724     0.08400
C1280       C  0.39031058  0.47101029  0.88707083     0.04700
C1281       C  0.38619338  0.47982840  0.91262476    -0.20000
C1282       C  0.39311503  0.50171185  0.91304127    -0.12300
C1283       C  0.40365447  0.51486992  0.88648125     0.13400
C1284       C  0.40758183  0.50589239  0.86071885    -0.22700
C1285       C  0.38347660  0.44773112  0.88822022    -0.05800
H1286       H  0.37799675  0.46967574  0.93282692     0.14900
C1287       C  0.41186944  0.53855810  0.88568924    -0.16000
H1288       H  0.41623532  0.51594624  0.84062446     0.09300
H1289       H  0.45398403  0.46314272  0.84560520     0.07100
H1290       H  0.46994018  0.48854072  0.82469451     0.08300
H1291       H  0.45961473  0.46303352  0.80537975     0.07400
H1292       H  0.37669819  0.48007649  0.80486159     0.02200
H1293       H  0.36296845  0.45393985  0.82409331     0.02700
H1294       H  0.36611518  0.45567934  0.78246575     0.06200
H1295       H  0.37499264  0.43964636  0.91033843     0.05200
H1296       H  0.39800556  0.44708584  0.88630577    -0.00600
H1297       H  0.37222929  0.43846957  0.86868785     0.00900
H1298       H  0.42068676  0.54650791  0.86369605     0.04600
H1299       H  0.42327110  0.54725629  0.90532555     0.06500
H1300       H  0.39799756  0.54026991  0.88737197     0.07400
C1301       C  0.39706190  0.46827634  0.62907002    -0.22200
C1302       C  0.41117336  0.47871167  0.60378869     0.09700
C1303       C  0.43155996  0.48145175  0.60333481     0.10100
C1304       C  0.43743554  0.47371344  0.62832806    -0.17200
C1305       C  0.42336790  0.46318763  0.65365439    -0.27600
C1306       C  0.40295704  0.46057992  0.65425530     0.18500
C1307       C  0.40451892  0.48674018  0.57778259     0.12400
C1308       C  0.44697802  0.49224552  0.57624991    -0.11900
H1309       H  0.45302492  0.47562866  0.62792591     0.12700
C1310       C  0.38742082  0.45068699  0.68138590    -0.22800
H1311       H  0.38149415  0.46640311  0.62932274     0.08400
C1312       C  0.39099083  0.47275921  0.55377141     0.04700
C1313       C  0.38750303  0.48158701  0.52749744    -0.20000
C1314       C  0.39738822  0.50407868  0.52460726    -0.07800
C1315       C  0.41077027  0.51806755  0.54899669     0.13400
C1316       C  0.41375722  0.50908151  0.57556589    -0.22700
C1317       C  0.38077786  0.44865028  0.55551072    -0.05800
H1318       H  0.37724710  0.47089419  0.50884160     0.14900
C1319       C  0.42339504  0.54251477  0.54724570    -0.16000
H1320       H  0.42436756  0.51972214  0.59402046     0.09300
H1321       H  0.37189286  0.43582319  0.67359933     0.07100
H1322       H  0.38402465  0.46250829  0.69027806     0.08300
H1323       H  0.39382626  0.44634594  0.70115292     0.07400
H1324       H  0.45185775  0.50927650  0.57385900     0.02200
H1325       H  0.43890824  0.48325566  0.55446946     0.02700
H1326       H  0.46199713  0.49256491  0.57936434     0.06200
H1327       H  0.37086938  0.44010166  0.53453120     0.05200
H1328       H  0.36997293  0.44176419  0.57619310    -0.00600
H1329       H  0.39367391  0.44549219  0.55740846     0.00900
H1330       H  0.41751907  0.54854593  0.56557689     0.04600
H1331       H  0.42228237  0.54871288  0.52444209     0.06500
H1332       H  0.44092651  0.54956354  0.55127879     0.07400
loop_ 
_geom_bond_atom_site_label_1 
_geom_bond_atom_site_label_2 
_geom_bond_distance 
_geom_bond_site_symmetry_2 
_ccdc_geom_bond_type 
O1            V9   1.896       .  S
O1           C11   1.264       .  A
O2            V9   1.897       .  S
O2           C12   1.263       .  A
O3            V9   1.901       .  S
O3           C13   1.264       .  A
O4            V9   1.898       .  S
O4           C14   1.264       .  A
O5           V10   1.895       .  S
O5           C14   1.263       .  A
O6           V10   1.893       .  S
O6           C13   1.263       .  A
O7           V10   1.893       .  S
O7           C12   1.263       .  A
O8           V10   1.893       .  S
O8           C11   1.262       .  A
V9           V10   2.089       .  T
C11         C543   1.469       .  S
C12         C607   1.468       .  S
C13         C639   1.471       .  S
C14         C575   1.474       .  S
C15         C511   1.473       .  S
C15          N16   1.359       .  A
C15         N686   1.357   1_554  A
N16          C17   1.357       .  A
C17         C479   1.468       .  S
C17          N18   1.355       .  A
N18         C685   1.356   1_554  A
C19         C447   1.483       .  S
C19          N20   1.355       .  A
C19         N684   1.357       .  A
N20         C681   1.357       .  A
C21         C415   1.475       .  S
C21          N22   1.362       .  A
C21         N692   1.358       .  A
N22          C23   1.359       .  A
C23         C584   1.478       .  S
C23          N24   1.356       .  A
N24         C691   1.353       .  A
C25         C552   1.473   1_556  S
C25          N26   1.355       .  A
C25         N690   1.353       .  A
N26         C687   1.358       .  A
C27         C424   1.477       .  S
C27          N28   1.357       .  A
C27          N32   1.356       .  A
N28          C29   1.358       .  A
C29         C520   1.476       .  S
C29          N30   1.359       .  A
N30          C31   1.358       .  A
C31         C392   1.481       .  S
C31          N32   1.356       .  A
C33         C383   1.475       .  S
C33          N34   1.361       .  A
C33         N704   1.360       .  A
N34          C35   1.358       .  A
C35         C319   1.482       .  S
C35          N36   1.355       .  A
N36         C703   1.354       .  A
C37         C351   1.474       .  S
C37          N38   1.357       .  A
C37         N702   1.354       .  A
N38         C699   1.360       .  A
O39          V47   1.898       .  S
O39          C49   1.264       .  A
O40          V47   1.896   1_565  S
O40          C50   1.263       .  A
O41          V47   1.897   1_565  S
O41          C51   1.263       .  A
O42          V47   1.898       .  S
O42          C52   1.264       .  A
O43          V48   1.893       .  S
O43          C52   1.263       .  A
O44          V48   1.893   1_565  S
O44          C51   1.263       .  A
O45          V48   1.897   1_565  S
O45          C50   1.264       .  A
O46          V48   1.897       .  S
O46          C49   1.264       .  A
V47          V48   2.088       .  T
C49         C328   1.475       .  S
C50         C264   1.471       .  S
C51         C287   1.477       .  S
C52         C360   1.472       .  S
O53          V61   1.892       .  S
O53          C63   1.262       .  A
O54          V61   1.893   1_655  S
O54          C64   1.263       .  A
O55          V61   1.893   1_655  S
O55          C65   1.263       .  A
O56          V61   1.896       .  S
O56          C66   1.263       .  A
O57          V62   1.898       .  S
O57          C66   1.265       .  A
O58          V62   1.902   1_655  S
O58          C65   1.264       .  A
O59          V62   1.897   1_655  S
O59          C64   1.264       .  A
O60          V62   1.897       .  S
O60          C63   1.265       .  A
V61          V62   2.085       .  T
C63         C223   1.486       .  S
C64         C456   1.471       .  S
C65         C488   1.472       .  S
C66         C200   1.479       .  S
C67         C168   1.473       .  S
C67          N68   1.358       .  A
C67         N738   1.360       .  A
N68          C69   1.354       .  A
C69         C648   1.473   1_556  S
C69          N70   1.354       .  A
N70         C737   1.357       .  A
C71         C616   1.478       .  S
C71          N72   1.359       .  A
C71         N736   1.356       .  A
N72         C733   1.360       .  A
C73         C159   1.474       .  S
C73          N74   1.358       .  A
C73          N78   1.357       .  A
N74          C75   1.355       .  A
C75         C136   1.480       .  S
C75          N76   1.357       .  A
N76          C77   1.357       .  A
C77          C95   1.470       .  S
C77          N78   1.357       .  A
C79         C127   1.482       .  S
C79          N84   1.363       .  A
C79         N746   1.360       .  A
N80          C81   1.359       .  A
N80         C745   1.361       .  A
C81         C232   1.493       .  S
C81         N748   1.350       .  A
N82          C83   1.353       .  A
N82         C747   1.351       .  A
C83         C191   1.483       .  S
C83          N84   1.358       .  A
C85         C104   1.467       .  S
C85          N86   1.358       .  A
C85         N756   1.358       .  A
N86          C87   1.356       .  A
C87         C296   1.470       .  S
C87          N88   1.354       .  A
N88         C755   1.355       .  A
C89         C255   1.473       .  S
C89          N90   1.358       .  A
C89         N754   1.355       .  A
N90         C751   1.358       .  A
C91          C96   1.401       .  A
C91         C758   1.400       .  A
C91         H101   1.085       .  S
C92          C97   1.473       .  S
C92          C93   1.409       .  A
C92         C757   1.400   1_554  A
C93          C94   1.400       .  A
C93          C98   1.507       .  S
C94         C761   1.403       .  A
C94          H99   1.084       .  S
C95          C96   1.416       .  A
C95         C760   1.403       .  A
C96         C100   1.508       .  S
C97         C102   1.410       .  A
C97         C772   1.399       .  A
C98         H114   1.110       .  S
C98         H115   1.109       .  S
C98         H116   1.111       .  S
C100        H111   1.110       .  S
C100        H112   1.111       .  S
C100        H113   1.106       .  S
C102        C103   1.404       .  A
C102        C107   1.506       .  S
C103        C770   1.403       .  A
C103        H108   1.084       .  S
C104        C105   1.414       .  A
C104        C769   1.404       .  A
C105        C106   1.398       .  A
C105        C109   1.508       .  S
C106        C763   1.399       .  A
C106        H110   1.085       .  S
C107        H117   1.111       .  S
C107        H118   1.110       .  S
C107        H119   1.109       .  S
C109        H120   1.110       .  S
C109        H121   1.107       .  S
C109        H122   1.111       .  S
C123        C128   1.403       .  A
C123        C790   1.400       .  A
C123        H133   1.085       .  S
C124        C129   1.477       .  S
C124        C125   1.408       .  A
C124        C789   1.399       .  A
C125        C126   1.401       .  A
C125        C130   1.507       .  S
C126        C127   1.405       .  A
C126        H131   1.084       .  S
C127        C794   1.422       .  A
C128        C793   1.419       .  A
C128        C132   1.509       .  S
C129        C134   1.409       .  A
C129        C804   1.400       .  A
C130        H146   1.110       .  S
C130        H147   1.110       .  S
C130        H148   1.111       .  S
C132        H143   1.111       .  S
C132        H144   1.110       .  S
C132        H145   1.105       .  S
C134        C135   1.400       .  A
C134        C139   1.507       .  S
C135        C136   1.404       .  A
C135        H140   1.084       .  S
C136        C803   1.418       .  A
C137        C138   1.403       .  A
C137        C802   1.416       .  A
C137        C141   1.508       .  S
C138        C795   1.401       .  A
C138        H142   1.084       .  S
C139        H149   1.111       .  S
C139        H150   1.110       .  S
C139        H151   1.110       .  S
C141        H152   1.110       .  S
C141        H153   1.107       .  S
C141        H154   1.110       .  S
C155        C160   1.402       .  A
C155        C822   1.400   1_554  A
C155        H165   1.085       .  S
C156        C161   1.474       .  S
C156        C157   1.407       .  A
C156        C821   1.400       .  A
C157        C158   1.399       .  A
C157        C162   1.507       .  S
C158        C159   1.405       .  A
C158        H163   1.084       .  S
C159        C826   1.419       .  A
C160        C825   1.418   1_554  A
C160        C164   1.509       .  S
C161        C166   1.408       .  A
C161        C836   1.399       .  A
C162        H178   1.110       .  S
C162        H179   1.110       .  S
C162        H180   1.111       .  S
C164        H175   1.110       .  S
C164        H176   1.111       .  S
C164        H177   1.105       .  S
C166        C167   1.403       .  A
C166        C171   1.506       .  S
C167        C834   1.406       .  A
C167        H172   1.084       .  S
C168        C169   1.417       .  A
C168        C833   1.405       .  A
C169        C170   1.398       .  A
C169        C173   1.509   1_556  S
C170        C827   1.399       .  A
C170        H174   1.085   1_556  S
C171        H181   1.111       .  S
C171        H182   1.110       .  S
C171        H183   1.110       .  S
C173        H184   1.110       .  S
C173        H185   1.107       .  S
C173        H186   1.111       .  S
C187        C188   1.403       .  A
C187        C192   1.407       .  A
C187        H197   1.084       .  S
C188        C193   1.478       .  S
C188        C189   1.407       .  A
C189        C190   1.398       .  A
C189        C194   1.508       .  S
C190        C191   1.406       .  A
C190        H195   1.083       .  S
C191        C192   1.416       .  A
C192        C196   1.506       .  S
C193        C198   1.409       .  A
C193        C202   1.401       .  A
C194        H210   1.110       .  S
C194        H211   1.110       .  S
C194        H212   1.111       .  S
C196        H207   1.111       .  S
C196        H208   1.110       .  S
C196        H209   1.110       .  S
C198        C199   1.400       .  A
C198        C203   1.507       .  S
C199        C200   1.403       .  A
C199        H204   1.084       .  S
C200        C201   1.419       .  A
C201        C202   1.405       .  A
C201        C205   1.508       .  S
C202        H206   1.084       .  S
C203        H213   1.111       .  S
C203        H214   1.110       .  S
C203        H215   1.110       .  S
C205        H216   1.110       .  S
C205        H217   1.109       .  S
C205        H218   1.111       .  S
C219        C220   1.397       .  A
C219        C224   1.402       .  A
C219        H229   1.084       .  S
C220        C225   1.472       .  S
C220        C221   1.407       .  A
C221        C222   1.400       .  A
C221        C226   1.507       .  S
C222        C223   1.408       .  A
C222        H227   1.084       .  S
C223        C224   1.423       .  A
C224        C228   1.509       .  S
C225        C230   1.405       .  A
C225        C234   1.393       .  A
C226        H242   1.110       .  S
C226        H243   1.110       .  S
C226        H244   1.111       .  S
C228        H239   1.111       .  S
C228        H240   1.110       .  S
C228        H241   1.110       .  S
C230        C231   1.403       .  A
C230        C235   1.506       .  S
C231        C232   1.411       .  A
C231        H236   1.083       .  S
C232        C233   1.429       .  A
C233        C234   1.399       .  A
C233        C237   1.511       .  S
C234        H238   1.085       .  S
C235        H245   1.111       .  S
C235        H246   1.110       .  S
C235        H247   1.110       .  S
C237        H248   1.109       .  S
C237        H249   1.111       .  S
C237        H250   1.110       .  S
C251        C252   1.401       .  A
C251        C256   1.404       .  A
C251        H261   1.085       .  S
C252        C257   1.474       .  S
C252        C253   1.408       .  A
C253        C254   1.398       .  A
C253        C258   1.507       .  S
C254        C255   1.404       .  A
C254        H259   1.085       .  S
C255        C256   1.417       .  A
C256        C260   1.508       .  S
C257        C262   1.408       .  A
C257        C266   1.400       .  A
C258        H274   1.110       .  S
C258        H275   1.110       .  S
C258        H276   1.111       .  S
C260        H271   1.110       .  S
C260        H272   1.111       .  S
C260        H273   1.106       .  S
C262        C263   1.401       .  A
C262        C267   1.506       .  S
C263        C264   1.404       .  A
C263        H268   1.084       .  S
C264        C265   1.416       .  A
C265        C266   1.401       .  A
C265        C269   1.508       .  S
C266        H270   1.085       .  S
C267        H277   1.111       .  S
C267        H278   1.110       .  S
C267        H279   1.110       .  S
C269        H280   1.110       .  S
C269        H281   1.105   1_565  S
C269        H282   1.111       .  S
C283        C284   1.400       .  A
C283        C288   1.403       .  A
C283        H293   1.084       .  S
C284        C289   1.475       .  S
C284        C285   1.410       .  A
C285        C286   1.399       .  A
C285        C290   1.508       .  S
C286        C287   1.404       .  A
C286        H291   1.084       .  S
C287        C288   1.417       .  A
C288        C292   1.507       .  S
C289        C294   1.410       .  A
C289        C298   1.401       .  A
C290        H306   1.110       .  S
C290        H307   1.110       .  S
C290        H308   1.111       .  S
C292        H303   1.109       .  S
C292        H304   1.111       .  S
C292        H305   1.110       .  S
C294        C295   1.399       .  A
C294        C299   1.507       .  S
C295        C296   1.403       .  A
C295        H300   1.084       .  S
C296        C297   1.416       .  A
C297        C298   1.402       .  A
C297        C301   1.508       .  S
C298        H302   1.084       .  S
C299        H309   1.111       .  S
C299        H310   1.110       .  S
C299        H311   1.110       .  S
C301        H312   1.110       .  S
C301        H313   1.106       .  S
C301        H314   1.111       .  S
C315        C316   1.401       .  A
C315        C320   1.406       .  A
C315        H325   1.084       .  S
C316        C321   1.477       .  S
C316        C317   1.408       .  A
C317        C318   1.399       .  A
C317        C322   1.507       .  S
C318        C319   1.406       .  A
C318        H323   1.084       .  S
C319        C320   1.417       .  A
C320        C324   1.506       .  S
C321        C326   1.409       .  A
C321        C330   1.400       .  A
C322        H338   1.110       .  S
C322        H339   1.110       .  S
C322        H340   1.111       .  S
C324        H335   1.111       .  S
C324        H336   1.110       .  S
C324        H337   1.109       .  S
C326        C327   1.404       .  A
C326        C331   1.506       .  S
C327        C328   1.406       .  A
C327        H332   1.084       .  S
C328        C329   1.417       .  A
C329        C330   1.400       .  A
C329        C333   1.509       .  S
C330        H334   1.085       .  S
C331        H341   1.111       .  S
C331        H342   1.110       .  S
C331        H343   1.110       .  S
C333        H344   1.110       .  S
C333        H345   1.106       .  S
C333        H346   1.111       .  S
C347        C348   1.401       .  A
C347        C352   1.404       .  A
C347        H357   1.085       .  S
C348        C353   1.476       .  S
C348        C349   1.408       .  A
C349        C350   1.399       .  A
C349        C354   1.507       .  S
C350        C351   1.404       .  A
C350        H355   1.084       .  S
C351        C352   1.417       .  A
C352        C356   1.508       .  S
C353        C358   1.409       .  A
C353        C362   1.401       .  A
C354        H370   1.110       .  S
C354        H371   1.110       .  S
C354        H372   1.111       .  S
C356        H367   1.111       .  S
C356        H368   1.110       .  S
C356        H369   1.106       .  S
C358        C359   1.399       .  A
C358        C363   1.507       .  S
C359        C360   1.403       .  A
C359        H364   1.083       .  S
C360        C361   1.416       .  A
C361        C362   1.402       .  A
C361        C365   1.508       .  S
C362        H366   1.084       .  S
C363        H373   1.111       .  S
C363        H374   1.110       .  S
C363        H375   1.110       .  S
C365        H376   1.111       .  S
C365        H377   1.107       .  S
C365        H378   1.110       .  S
C379        C384   1.402       .  A
C379       C1046   1.400       .  A
C379        H389   1.085       .  S
C380        C385   1.476       .  S
C380        C381   1.409       .  A
C380       C1045   1.400   1_554  A
C381        C382   1.402       .  A
C381        C386   1.506       .  S
C382       C1049   1.404       .  A
C382        H387   1.084       .  S
C383        C384   1.416       .  A
C383       C1048   1.404       .  A
C384        C388   1.507       .  S
C385        C390   1.408       .  A
C385       C1060   1.398   1_554  A
C386        H402   1.110       .  S
C386        H403   1.110       .  S
C386        H404   1.111       .  S
C388        H399   1.111       .  S
C388        H400   1.110       .  S
C388        H401   1.107       .  S
C390        C391   1.403       .  A
C390        C395   1.506       .  S
C391       C1058   1.407   1_554  A
C391        H396   1.084       .  S
C392        C393   1.420       .  A
C392       C1057   1.407       .  A
C393        C394   1.401       .  A
C393        C397   1.509       .  S
C394       C1051   1.398       .  A
C394        H398   1.085       .  S
C395        H405   1.111       .  S
C395        H406   1.110       .  S
C395        H407   1.110       .  S
C397        H408   1.111       .  S
C397        H409   1.106       .  S
C397        H410   1.110       .  S
C411        C416   1.403       .  A
C411       C1078   1.401       .  A
C411        H421   1.085       .  S
C412        C417   1.473       .  S
C412        C413   1.408       .  A
C412       C1077   1.400       .  A
C413        C414   1.399       .  A
C413        C418   1.507   1_556  S
C414       C1081   1.405       .  A
C414        H419   1.084   1_556  S
C415        C416   1.416       .  A
C415       C1080   1.405       .  A
C416        C420   1.507       .  S
C417        C422   1.408       .  A
C417       C1092   1.399       .  A
C418        H434   1.110       .  S
C418        H435   1.110       .  S
C418        H436   1.111       .  S
C420        H431   1.111       .  S
C420        H432   1.110       .  S
C420        H433   1.106       .  S
C422        C423   1.399       .  A
C422        C427   1.507   1_556  S
C423       C1090   1.405       .  A
C423        H428   1.084   1_556  S
C424        C425   1.419       .  A
C424       C1089   1.405       .  A
C425        C426   1.403       .  A
C425        C429   1.509       .  S
C426       C1083   1.399       .  A
C426        H430   1.085       .  S
C427        H437   1.111       .  S
C427        H438   1.110       .  S
C427        H439   1.110       .  S
C429        H440   1.111       .  S
C429        H441   1.105       .  S
C429        H442   1.110       .  S
C443        C444   1.398       .  A
C443        C448   1.402       .  A
C443        H453   1.085       .  S
C444        C449   1.474       .  S
C444        C445   1.407       .  A
C445        C446   1.401       .  A
C445        C450   1.507       .  S
C446        C447   1.407       .  A
C446        H451   1.084       .  S
C447        C448   1.421       .  A
C448        C452   1.508       .  S
C449        C454   1.409       .  A
C449        C458   1.400       .  A
C450        H466   1.110       .  S
C450        H467   1.110       .  S
C450        H468   1.111       .  S
C452        H463   1.111       .  S
C452        H464   1.110       .  S
C452        H465   1.110       .  S
C454        C455   1.399       .  A
C454        C459   1.507       .  S
C455        C456   1.402       .  A
C455        H460   1.084       .  S
C456        C457   1.417       .  A
C457        C458   1.403       .  A
C457        C461   1.508       .  S
C458        H462   1.085       .  S
C459        H469   1.111       .  S
C459        H470   1.110       .  S
C459        H471   1.110       .  S
C461        H472   1.111       .  S
C461        H473   1.106       .  S
C461        H474   1.110       .  S
C475        C476   1.401       .  A
C475        C480   1.404       .  A
C475        H485   1.084       .  S
C476        C481   1.476       .  S
C476        C477   1.410       .  A
C477        C478   1.399       .  A
C477        C482   1.507       .  S
C478        C479   1.402       .  A
C478        H483   1.085       .  S
C479        C480   1.415       .  A
C480        C484   1.507       .  S
C481        C486   1.411       .  A
C481        C490   1.399       .  A
C482        H498   1.110       .  S
C482        H499   1.110       .  S
C482        H500   1.111       .  S
C484        H495   1.110       .  S
C484        H496   1.110       .  S
C484        H497   1.107       .  S
C486        C487   1.403       .  A
C486        C491   1.507       .  S
C487        C488   1.403       .  A
C487        H492   1.084       .  S
C488        C489   1.417       .  A
C489        C490   1.401       .  A
C489        C493   1.508       .  S
C490        H494   1.085       .  S
C491        H501   1.111       .  S
C491        H502   1.110       .  S
C491        H503   1.110       .  S
C493        H504   1.111       .  S
C493        H505   1.107       .  S
C493        H506   1.110       .  S
C507        C512   1.402       .  A
C507       C1174   1.400       .  A
C507        H517   1.085       .  S
C508        C513   1.475       .  S
C508        C509   1.409       .  A
C508       C1173   1.400   1_554  A
C509        C510   1.401       .  A
C509        C514   1.507       .  S
C510        C511   1.404       .  A
C510        H515   1.084       .  S
C511       C1178   1.416   1_554  A
C512       C1177   1.417       .  A
C512        C516   1.508       .  S
C513        C518   1.408       .  A
C513       C1188   1.399   1_554  A
C514        H530   1.110       .  S
C514        H531   1.110       .  S
C514        H532   1.111       .  S
C516        H527   1.111       .  S
C516        H528   1.110       .  S
C516        H529   1.107       .  S
C518        C519   1.402       .  A
C518        C523   1.506       .  S
C519       C1186   1.406   1_554  A
C519        H524   1.084       .  S
C520        C521   1.418       .  A
C520       C1185   1.405       .  A
C521        C522   1.401       .  A
C521        C525   1.509       .  S
C522       C1179   1.400       .  A
C522        H526   1.085       .  S
C523        H533   1.111       .  S
C523        H534   1.110       .  S
C523        H535   1.110       .  S
C525        H536   1.111       .  S
C525        H537   1.106       .  S
C525        H538   1.110       .  S
C539        C540   1.399       .  A
C539        C544   1.401       .  A
C539        H549   1.085       .  S
C540        C545   1.473       .  S
C540        C541   1.409       .  A
C541        C542   1.400       .  A
C541        C546   1.507       .  S
C542        C543   1.403       .  A
C542        H547   1.085       .  S
C543        C544   1.416       .  A
C544        C548   1.508       .  S
C545        C550   1.409       .  A
C545        C554   1.398       .  A
C546        H562   1.110       .  S
C546        H563   1.110       .  S
C546        H564   1.111       .  S
C548        H559   1.111       .  S
C548        H560   1.110       .  S
C548        H561   1.107       .  S
C550        C551   1.402       .  A
C550        C555   1.506       .  S
C551        C552   1.405       .  A
C551        H556   1.084       .  S
C552        C553   1.417       .  A
C553        C554   1.399       .  A
C553        C557   1.508       .  S
C554        H558   1.085       .  S
C555        H565   1.111       .  S
C555        H566   1.110       .  S
C555        H567   1.110       .  S
C557        H568   1.111       .  S
C557        H569   1.107   1_554  S
C557        H570   1.110   1_554  S
C571        C572   1.400       .  A
C571        C576   1.400       .  A
C571        H581   1.085       .  S
C572        C577   1.477       .  S
C572        C573   1.409       .  A
C573        C574   1.403       .  A
C573        C578   1.506       .  S
C574        C575   1.406       .  A
C574        H579   1.084       .  S
C575        C576   1.417       .  A
C576        C580   1.510       .  S
C577        C582   1.409       .  A
C577        C586   1.402       .  A
C578        H594   1.110       .  S
C578        H595   1.110       .  S
C578        H596   1.111       .  S
C580        H591   1.111       .  S
C580        H592   1.110       .  S
C580        H593   1.105       .  S
C582        C583   1.398       .  A
C582        C587   1.508       .  S
C583        C584   1.404       .  A
C583        H588   1.084       .  S
C584        C585   1.415       .  A
C585        C586   1.407       .  A
C585        C589   1.505       .  S
C586        H590   1.084       .  S
C587        H597   1.111       .  S
C587        H598   1.110       .  S
C587        H599   1.110       .  S
C589        H600   1.110       .  S
C589        H601   1.109       .  S
C589        H602   1.111       .  S
C603        C604   1.399       .  A
C603        C608   1.398       .  A
C603        H613   1.085       .  S
C604        C609   1.474       .  S
C604        C605   1.409       .  A
C605        C606   1.403       .  A
C605        C610   1.506       .  S
C606        C607   1.404       .  A
C606        H611   1.084       .  S
C607        C608   1.415       .  A
C608        C612   1.510       .  S
C609        C614   1.407       .  A
C609        C618   1.401       .  A
C610        H626   1.110       .  S
C610        H627   1.110       .  S
C610        H628   1.111       .  S
C612        H623   1.111       .  S
C612        H624   1.110       .  S
C612        H625   1.106       .  S
C614        C615   1.398       .  A
C614        C619   1.507       .  S
C615        C616   1.405       .  A
C615        H620   1.084       .  S
C616        C617   1.417       .  A
C617        C618   1.405       .  A
C617        C621   1.507       .  S
C618        H622   1.084       .  S
C619        H629   1.111       .  S
C619        H630   1.110       .  S
C619        H631   1.110       .  S
C621        H632   1.111       .  S
C621        H633   1.110       .  S
C621        H634   1.109       .  S
C635        C636   1.401       .  A
C635        C640   1.404       .  A
C635        H645   1.084       .  S
C636        C641   1.477       .  S
C636        C637   1.410       .  A
C637        C638   1.399       .  A
C637        C642   1.508       .  S
C638        C639   1.402       .  A
C638        H643   1.085       .  S
C639        C640   1.417       .  A
C640        C644   1.508       .  S
C641        C646   1.408       .  A
C641        C650   1.400       .  A
C642        H658   1.110       .  S
C642        H659   1.110       .  S
C642        H660   1.111       .  S
C644        H655   1.110       .  S
C644        H656   1.111       .  S
C644        H657   1.106       .  S
C646        C647   1.401       .  A
C646        C651   1.506       .  S
C647        C648   1.405       .  A
C647        H652   1.084       .  S
C648        C649   1.418       .  A
C649        C650   1.402       .  A
C649        C653   1.509       .  S
C650        H654   1.085       .  S
C651        H661   1.111       .  S
C651        H662   1.110       .  S
C651        H663   1.110       .  S
C653        H664   1.110       .  S
C653        H665   1.105       .  S
C653        H666   1.111       .  S
O667        V675   1.897       .  S
O667        C677   1.264       .  A
O668        V675   1.898       .  S
O668        C678   1.263       .  A
O669        V675   1.900       .  S
O669        C679   1.264       .  A
O670        V675   1.897       .  S
O670        C680   1.264       .  A
O671        V676   1.893       .  S
O671        C680   1.263       .  A
O672        V676   1.892       .  S
O672        C679   1.263       .  A
O673        V676   1.893       .  S
O673        C678   1.263       .  A
O674        V676   1.893       .  S
O674        C677   1.262       .  A
V675        V676   2.089       .  T
C677       C1209   1.468       .  S
C678       C1273   1.469       .  S
C679       C1305   1.471       .  S
C680       C1241   1.472       .  S
C681       C1177   1.474       .  S
C681        N682   1.360       .  A
N682        C683   1.358       .  A
C683       C1145   1.471       .  S
C683        N684   1.356       .  A
C685       C1113   1.482       .  S
C685        N686   1.355       .  A
C687       C1081   1.473       .  S
C687        N688   1.361       .  A
N688        C689   1.358       .  A
C689       C1250   1.477       .  S
C689        N690   1.356       .  A
C691       C1218   1.473       .  S
C691        N692   1.355       .  A
C693       C1090   1.475       .  S
C693        N694   1.357       .  A
C693        N698   1.356       .  A
N694        C695   1.357       .  A
C695       C1186   1.476       .  S
C695        N696   1.358       .  A
N696        C697   1.358       .  A
C697       C1058   1.480       .  S
C697        N698   1.356       .  A
C699       C1049   1.473       .  S
C699        N700   1.361   1_554  A
N700        C701   1.357       .  A
C701        C985   1.480       .  S
C701        N702   1.355   1_556  A
C703       C1017   1.475       .  S
C703        N704   1.358       .  A
O705        V713   1.898       .  S
O705        C715   1.263       .  A
O706        V713   1.895   1_565  S
O706        C716   1.263       .  A
O707        V713   1.898   1_565  S
O707        C717   1.264       .  A
O708        V713   1.899       .  S
O708        C718   1.265       .  A
O709        V714   1.893       .  S
O709        C718   1.263       .  A
O710        V714   1.892   1_565  S
O710        C717   1.264       .  A
O711        V714   1.896   1_565  S
O711        C716   1.263       .  A
O712        V714   1.895       .  S
O712        C715   1.264       .  A
V713        V714   2.088       .  T
C715        C994   1.473       .  S
C716        C930   1.469       .  S
C717        C953   1.478       .  S
C718       C1026   1.474       .  S
O719        V727   1.891       .  S
O719        C729   1.262       .  A
O720        V727   1.894   1_655  S
O720        C730   1.263       .  A
O721        V727   1.894   1_655  S
O721        C731   1.263       .  A
O722        V727   1.896       .  S
O722        C732   1.263       .  A
O723        V728   1.899       .  S
O723        C732   1.265       .  A
O724        V728   1.901   1_655  S
O724        C731   1.264       .  A
O725        V728   1.896   1_655  S
O725        C730   1.264       .  A
O726        V728   1.896       .  S
O726        C729   1.265       .  A
V727        V728   2.086       .  T
C729        C889   1.484       .  S
C730       C1122   1.471       .  S
C731       C1154   1.475       .  S
C732        C866   1.480       .  S
C733        C834   1.474       .  S
C733        N734   1.358       .  A
N734        C735   1.355       .  A
C735       C1314   1.474       .  S
C735        N736   1.354       .  A
C737       C1282   1.480       .  S
C737        N738   1.359       .  A
C739        C825   1.474   1_554  S
C739        N740   1.357       .  A
C739        N744   1.358       .  A
N740        C741   1.355       .  A
C741        C802   1.471       .  S
C741        N742   1.356       .  A
N742        C743   1.358       .  A
C743        C761   1.470       .  S
C743        N744   1.358       .  A
C745        C793   1.477       .  S
C745        N750   1.362   1_554  A
N746        C747   1.358       .  A
C747        C898   1.491       .  S
N748        C749   1.352   1_554  A
C749        C857   1.481       .  S
C749        N750   1.358       .  A
C751        C770   1.466       .  S
C751        N752   1.359   1_554  A
N752        C753   1.356       .  A
C753        C962   1.470       .  S
C753        N754   1.354   1_556  A
C755        C921   1.472       .  S
C755        N756   1.357       .  A
C757        C762   1.401       .  A
C757        H767   1.085       .  S
C758        C763   1.473       .  S
C758        C759   1.409       .  A
C759        C760   1.400       .  A
C759        C764   1.507       .  S
C760        H765   1.084       .  S
C761        C762   1.415   1_554  A
C762        C766   1.508       .  S
C763        C768   1.409       .  A
C764        H780   1.110       .  S
C764        H781   1.109       .  S
C764        H782   1.111       .  S
C766        H777   1.110       .  S
C766        H778   1.111       .  S
C766        H779   1.106       .  S
C768        C769   1.403       .  A
C768        C773   1.506       .  S
C769        H774   1.084       .  S
C770        C771   1.414       .  A
C771        C772   1.398       .  A
C771        C775   1.508   1_554  S
C772        H776   1.085   1_554  S
C773        H783   1.111       .  S
C773        H784   1.110       .  S
C773        H785   1.109       .  S
C775        H786   1.110       .  S
C775        H787   1.107       .  S
C775        H788   1.111   1_556  S
C789        C794   1.403       .  A
C789        H799   1.085       .  S
C790        C795   1.477       .  S
C790        C791   1.409       .  A
C791        C792   1.402       .  A
C791        C796   1.506   1_554  S
C792        C793   1.404       .  A
C792        H797   1.084   1_554  S
C794        C798   1.509       .  S
C795        C800   1.410       .  A
C796        H812   1.110   1_556  S
C796        H813   1.110       .  S
C796        H814   1.111       .  S
C798        H809   1.111       .  S
C798        H810   1.110       .  S
C798        H811   1.105       .  S
C800        C801   1.400       .  A
C800        C805   1.507   1_554  S
C801        C802   1.402       .  A
C801        H806   1.084   1_554  S
C803        C804   1.405       .  A
C803        C807   1.508       .  S
C804        H808   1.084       .  S
C805        H815   1.111       .  S
C805        H816   1.110       .  S
C805        H817   1.110       .  S
C807        H818   1.111       .  S
C807        H819   1.110       .  S
C807        H820   1.109       .  S
C821        C826   1.402       .  A
C821        H831   1.085       .  S
C822        C827   1.474       .  S
C822        C823   1.408       .  A
C823        C824   1.399       .  A
C823        C828   1.507       .  S
C824        C825   1.405       .  A
C824        H829   1.084       .  S
C826        C830   1.509       .  S
C827        C832   1.408       .  A
C828        H844   1.110       .  S
C828        H845   1.110       .  S
C828        H846   1.111       .  S
C830        H841   1.110       .  S
C830        H842   1.111       .  S
C830        H843   1.104       .  S
C832        C833   1.403       .  A
C832        C837   1.506       .  S
C833        H838   1.084       .  S
C834        C835   1.417       .  A
C835        C836   1.398       .  A
C835        C839   1.509       .  S
C836        H840   1.085       .  S
C837        H847   1.111       .  S
C837        H848   1.110       .  S
C837        H849   1.110       .  S
C839        H850   1.110       .  S
C839        H851   1.107       .  S
C839        H852   1.111       .  S
C853        C854   1.402       .  A
C853        C858   1.406       .  A
C853        H863   1.084       .  S
C854        C859   1.477       .  S
C854        C855   1.407       .  A
C855        C856   1.398       .  A
C855        C860   1.508       .  S
C856        C857   1.406       .  A
C856        H861   1.084       .  S
C857        C858   1.416       .  A
C858        C862   1.506       .  S
C859        C864   1.410       .  A
C859        C868   1.399       .  A
C860        H876   1.110       .  S
C860        H877   1.110       .  S
C860        H878   1.111       .  S
C862        H873   1.111       .  S
C862        H874   1.110       .  S
C862        H875   1.110       .  S
C864        C865   1.400       .  A
C864        C869   1.507       .  S
C865        C866   1.404       .  A
C865        H870   1.084       .  S
C866        C867   1.419       .  A
C867        C868   1.404       .  A
C867        C871   1.507       .  S
C868        H872   1.084       .  S
C869        H879   1.111       .  S
C869        H880   1.110       .  S
C869        H881   1.110       .  S
C871        H882   1.110       .  S
C871        H883   1.109       .  S
C871        H884   1.111       .  S
C885        C886   1.397       .  A
C885        C890   1.401       .  A
C885        H895   1.084       .  S
C886        C891   1.471       .  S
C886        C887   1.407       .  A
C887        C888   1.400       .  A
C887        C892   1.508       .  S
C888        C889   1.408       .  A
C888        H893   1.084       .  S
C889        C890   1.422       .  A
C890        C894   1.508       .  S
C891        C896   1.405       .  A
C891        C900   1.394       .  A
C892        H908   1.110       .  S
C892        H909   1.109       .  S
C892        H910   1.111       .  S
C894        H905   1.111       .  S
C894        H906   1.110       .  S
C894        H907   1.109       .  S
C896        C897   1.403       .  A
C896        C901   1.506       .  S
C897        C898   1.411       .  A
C897        H902   1.083       .  S
C898        C899   1.427       .  A
C899        C900   1.398       .  A
C899        C903   1.510       .  S
C900        H904   1.085       .  S
C901        H911   1.111       .  S
C901        H912   1.110       .  S
C901        H913   1.109       .  S
C903        H914   1.110       .  S
C903        H915   1.111       .  S
C903        H916   1.110       .  S
C917        C918   1.400       .  A
C917        C922   1.403       .  A
C917        H927   1.085       .  S
C918        C923   1.473       .  S
C918        C919   1.408       .  A
C919        C920   1.398       .  A
C919        C924   1.507       .  S
C920        C921   1.404       .  A
C920        H925   1.084       .  S
C921        C922   1.417       .  A
C922        C926   1.508       .  S
C923        C928   1.408       .  A
C923        C932   1.399       .  A
C924        H940   1.110       .  S
C924        H941   1.110       .  S
C924        H942   1.111       .  S
C926        H937   1.110       .  S
C926        H938   1.111       .  S
C926        H939   1.106       .  S
C928        C929   1.402       .  A
C928        C933   1.506       .  S
C929        C930   1.404       .  A
C929        H934   1.084       .  S
C930        C931   1.416       .  A
C931        C932   1.400       .  A
C931        C935   1.508       .  S
C932        H936   1.085       .  S
C933        H943   1.111       .  S
C933        H944   1.110       .  S
C933        H945   1.110       .  S
C935        H946   1.110       .  S
C935        H947   1.105   1_565  S
C935        H948   1.111       .  S
C949        C950   1.400       .  A
C949        C954   1.404       .  A
C949        H959   1.084       .  S
C950        C955   1.476       .  S
C950        C951   1.410       .  A
C951        C952   1.398       .  A
C951        C956   1.508       .  S
C952        C953   1.404       .  A
C952        H957   1.084       .  S
C953        C954   1.418       .  A
C954        C958   1.507       .  S
C955        C960   1.410       .  A
C955        C964   1.401       .  A
C956        H972   1.110       .  S
C956        H973   1.110       .  S
C956        H974   1.111       .  S
C958        H969   1.109       .  S
C958        H970   1.111       .  S
C958        H971   1.111       .  S
C960        C961   1.399       .  A
C960        C965   1.507       .  S
C961        C962   1.403       .  A
C961        H966   1.084       .  S
C962        C963   1.416       .  A
C963        C964   1.402       .  A
C963        C967   1.508       .  S
C964        H968   1.084       .  S
C965        H975   1.111       .  S
C965        H976   1.110       .  S
C965        H977   1.110       .  S
C967        H978   1.110       .  S
C967        H979   1.106       .  S
C967        H980   1.111       .  S
C981        C982   1.401       .  A
C981        C986   1.405       .  A
C981        H991   1.084       .  S
C982        C987   1.477       .  S
C982        C983   1.408       .  A
C983        C984   1.399       .  A
C983        C988   1.507       .  S
C984        C985   1.406       .  A
C984        H989   1.084       .  S
C985        C986   1.416       .  A
C986        C990   1.506       .  S
C987        C992   1.409       .  A
C987        C996   1.400       .  A
C988       H1004   1.110       .  S
C988       H1005   1.110       .  S
C988       H1006   1.111       .  S
C990       H1001   1.111       .  S
C990       H1002   1.110       .  S
C990       H1003   1.109       .  S
C992        C993   1.404       .  A
C992        C997   1.506       .  S
C993        C994   1.405       .  A
C993        H998   1.084       .  S
C994        C995   1.416       .  A
C995        C996   1.400       .  A
C995        C999   1.509       .  S
C996       H1000   1.085       .  S
C997       H1007   1.111       .  S
C997       H1008   1.110       .  S
C997       H1009   1.110       .  S
C999       H1010   1.110       .  S
C999       H1011   1.106       .  S
C999       H1012   1.111       .  S
C1013      C1014   1.402       .  A
C1013      C1018   1.404       .  A
C1013      H1023   1.085       .  S
C1014      C1019   1.477       .  S
C1014      C1015   1.409       .  A
C1015      C1016   1.399       .  A
C1015      C1020   1.507       .  S
C1016      C1017   1.404       .  A
C1016      H1021   1.084       .  S
C1017      C1018   1.417       .  A
C1018      C1022   1.508       .  S
C1019      C1024   1.410       .  A
C1019      C1028   1.401       .  A
C1020      H1036   1.110       .  S
C1020      H1037   1.110       .  S
C1020      H1038   1.111       .  S
C1022      H1033   1.111       .  S
C1022      H1034   1.110       .  S
C1022      H1035   1.106       .  S
C1024      C1025   1.400       .  A
C1024      C1029   1.507       .  S
C1025      C1026   1.404       .  A
C1025      H1030   1.083       .  S
C1026      C1027   1.417       .  A
C1027      C1028   1.403       .  A
C1027      C1031   1.508       .  S
C1028      H1032   1.084       .  S
C1029      H1039   1.111       .  S
C1029      H1040   1.110       .  S
C1029      H1041   1.110       .  S
C1031      H1042   1.111       .  S
C1031      H1043   1.106       .  S
C1031      H1044   1.110       .  S
C1045      C1050   1.401       .  A
C1045      H1055   1.085       .  S
C1046      C1051   1.477       .  S
C1046      C1047   1.409       .  A
C1047      C1048   1.402       .  A
C1047      C1052   1.506       .  S
C1048      H1053   1.084       .  S
C1049      C1050   1.416   1_554  A
C1050      C1054   1.507       .  S
C1051      C1056   1.408       .  A
C1052      H1068   1.110       .  S
C1052      H1069   1.110       .  S
C1052      H1070   1.111       .  S
C1054      H1065   1.111       .  S
C1054      H1066   1.110       .  S
C1054      H1067   1.107       .  S
C1056      C1057   1.403       .  A
C1056      C1061   1.506       .  S
C1057      H1062   1.084       .  S
C1058      C1059   1.420       .  A
C1059      C1060   1.400       .  A
C1059      C1063   1.509       .  S
C1060      H1064   1.085       .  S
C1061      H1071   1.111       .  S
C1061      H1072   1.110       .  S
C1061      H1073   1.110       .  S
C1063      H1074   1.111       .  S
C1063      H1075   1.105       .  S
C1063      H1076   1.110       .  S
C1077      C1082   1.402       .  A
C1077      H1087   1.085       .  S
C1078      C1083   1.475       .  S
C1078      C1079   1.408       .  A
C1079      C1080   1.400       .  A
C1079      C1084   1.507       .  S
C1080      H1085   1.084       .  S
C1081      C1082   1.416       .  A
C1082      C1086   1.507       .  S
C1083      C1088   1.408       .  A
C1084      H1100   1.110       .  S
C1084      H1101   1.110       .  S
C1084      H1102   1.111       .  S
C1086      H1097   1.111       .  S
C1086      H1098   1.110       .  S
C1086      H1099   1.106       .  S
C1088      C1089   1.400       .  A
C1088      C1093   1.507       .  S
C1089      H1094   1.084       .  S
C1090      C1091   1.419       .  A
C1091      C1092   1.402       .  A
C1091      C1095   1.509       .  S
C1092      H1096   1.085       .  S
C1093      H1103   1.111       .  S
C1093      H1104   1.110       .  S
C1093      H1105   1.110       .  S
C1095      H1106   1.111       .  S
C1095      H1107   1.105       .  S
C1095      H1108   1.110       .  S
C1109      C1110   1.398       .  A
C1109      C1114   1.403       .  A
C1109      H1119   1.084       .  S
C1110      C1115   1.474       .  S
C1110      C1111   1.407       .  A
C1111      C1112   1.401       .  A
C1111      C1116   1.507       .  S
C1112      C1113   1.407       .  A
C1112      H1117   1.084       .  S
C1113      C1114   1.420       .  A
C1114      C1118   1.508       .  S
C1115      C1120   1.409       .  A
C1115      C1124   1.400       .  A
C1116      H1132   1.110       .  S
C1116      H1133   1.110       .  S
C1116      H1134   1.111       .  S
C1118      H1129   1.111       .  S
C1118      H1130   1.110       .  S
C1118      H1131   1.110       .  S
C1120      C1121   1.400       .  A
C1120      C1125   1.507       .  S
C1121      C1122   1.403       .  A
C1121      H1126   1.084       .  S
C1122      C1123   1.417       .  A
C1123      C1124   1.402       .  A
C1123      C1127   1.509       .  S
C1124      H1128   1.084       .  S
C1125      H1135   1.111       .  S
C1125      H1136   1.110       .  S
C1125      H1137   1.110       .  S
C1127      H1138   1.111       .  S
C1127      H1139   1.106       .  S
C1127      H1140   1.110       .  S
C1141      C1142   1.401       .  A
C1141      C1146   1.404       .  A
C1141      H1151   1.084       .  S
C1142      C1147   1.476       .  S
C1142      C1143   1.409       .  A
C1143      C1144   1.400       .  A
C1143      C1148   1.507       .  S
C1144      C1145   1.403       .  A
C1144      H1149   1.085       .  S
C1145      C1146   1.415       .  A
C1146      C1150   1.507       .  S
C1147      C1152   1.411       .  A
C1147      C1156   1.398       .  A
C1148      H1164   1.110       .  S
C1148      H1165   1.110       .  S
C1148      H1166   1.111       .  S
C1150      H1161   1.110       .  S
C1150      H1162   1.110       .  S
C1150      H1163   1.107       .  S
C1152      C1153   1.403       .  A
C1152      C1157   1.507       .  S
C1153      C1154   1.404       .  A
C1153      H1158   1.084       .  S
C1154      C1155   1.418       .  A
C1155      C1156   1.401       .  A
C1155      C1159   1.509       .  S
C1156      H1160   1.084       .  S
C1157      H1167   1.111       .  S
C1157      H1168   1.110       .  S
C1157      H1169   1.110       .  S
C1159      H1170   1.111       .  S
C1159      H1171   1.107       .  S
C1159      H1172   1.110       .  S
C1173      C1178   1.402       .  A
C1173      H1183   1.085       .  S
C1174      C1179   1.476       .  S
C1174      C1175   1.409       .  A
C1175      C1176   1.401       .  A
C1175      C1180   1.507       .  S
C1176      C1177   1.404       .  A
C1176      H1181   1.084       .  S
C1178      C1182   1.508       .  S
C1179      C1184   1.408       .  A
C1180      H1196   1.110       .  S
C1180      H1197   1.110       .  S
C1180      H1198   1.111       .  S
C1182      H1193   1.111       .  S
C1182      H1194   1.110       .  S
C1182      H1195   1.107       .  S
C1184      C1185   1.402       .  A
C1184      C1189   1.506       .  S
C1185      H1190   1.084       .  S
C1186      C1187   1.418       .  A
C1187      C1188   1.401       .  A
C1187      C1191   1.509       .  S
C1188      H1192   1.085       .  S
C1189      H1199   1.111       .  S
C1189      H1200   1.110       .  S
C1189      H1201   1.110       .  S
C1191      H1202   1.111       .  S
C1191      H1203   1.106       .  S
C1191      H1204   1.110       .  S
C1205      C1206   1.400       .  A
C1205      C1210   1.401       .  A
C1205      H1215   1.085       .  S
C1206      C1211   1.473       .  S
C1206      C1207   1.409       .  A
C1207      C1208   1.400       .  A
C1207      C1212   1.507       .  S
C1208      C1209   1.403       .  A
C1208      H1213   1.085       .  S
C1209      C1210   1.416       .  A
C1210      C1214   1.508       .  S
C1211      C1216   1.409       .  A
C1211      C1220   1.399       .  A
C1212      H1228   1.110       .  S
C1212      H1229   1.110       .  S
C1212      H1230   1.111       .  S
C1214      H1225   1.111       .  S
C1214      H1226   1.110       .  S
C1214      H1227   1.107       .  S
C1216      C1217   1.402       .  A
C1216      C1221   1.506       .  S
C1217      C1218   1.405       .  A
C1217      H1222   1.084       .  S
C1218      C1219   1.416       .  A
C1219      C1220   1.400       .  A
C1219      C1223   1.508       .  S
C1220      H1224   1.085       .  S
C1221      H1231   1.111       .  S
C1221      H1232   1.110       .  S
C1221      H1233   1.110       .  S
C1223      H1234   1.111       .  S
C1223      H1235   1.107       .  S
C1223      H1236   1.110       .  S
C1237      C1238   1.400       .  A
C1237      C1242   1.399       .  A
C1237      H1247   1.085       .  S
C1238      C1243   1.475       .  S
C1238      C1239   1.408       .  A
C1239      C1240   1.402       .  A
C1239      C1244   1.506       .  S
C1240      C1241   1.405       .  A
C1240      H1245   1.084       .  S
C1241      C1242   1.417       .  A
C1242      C1246   1.510       .  S
C1243      C1248   1.409       .  A
C1243      C1252   1.401       .  A
C1244      H1260   1.110       .  S
C1244      H1261   1.110       .  S
C1244      H1262   1.111       .  S
C1246      H1257   1.111       .  S
C1246      H1258   1.110       .  S
C1246      H1259   1.105       .  S
C1248      C1249   1.397       .  A
C1248      C1253   1.508       .  S
C1249      C1250   1.404       .  A
C1249      H1254   1.084       .  S
C1250      C1251   1.416       .  A
C1251      C1252   1.406       .  A
C1251      C1255   1.505       .  S
C1252      H1256   1.084       .  S
C1253      H1263   1.111       .  S
C1253      H1264   1.110       .  S
C1253      H1265   1.110       .  S
C1255      H1266   1.110       .  S
C1255      H1267   1.109       .  S
C1255      H1268   1.111       .  S
C1269      C1270   1.399       .  A
C1269      C1274   1.399       .  A
C1269      H1279   1.085       .  S
C1270      C1275   1.475       .  S
C1270      C1271   1.409       .  A
C1271      C1272   1.404       .  A
C1271      C1276   1.505       .  S
C1272      C1273   1.404       .  A
C1272      H1277   1.084       .  S
C1273      C1274   1.416       .  A
C1274      C1278   1.510       .  S
C1275      C1280   1.408       .  A
C1275      C1284   1.401       .  A
C1276      H1292   1.110       .  S
C1276      H1293   1.110       .  S
C1276      H1294   1.111       .  S
C1278      H1289   1.111       .  S
C1278      H1290   1.110       .  S
C1278      H1291   1.106       .  S
C1280      C1281   1.398       .  A
C1280      C1285   1.507       .  S
C1281      C1282   1.405       .  A
C1281      H1286   1.084       .  S
C1282      C1283   1.417       .  A
C1283      C1284   1.406       .  A
C1283      C1287   1.507       .  S
C1284      H1288   1.084       .  S
C1285      H1295   1.111       .  S
C1285      H1296   1.110       .  S
C1285      H1297   1.110       .  S
C1287      H1298   1.111       .  S
C1287      H1299   1.110       .  S
C1287      H1300   1.110       .  S
C1301      C1302   1.401       .  A
C1301      C1306   1.404       .  A
C1301      H1311   1.084       .  S
C1302      C1307   1.477       .  S
C1302      C1303   1.410       .  A
C1303      C1304   1.399       .  A
C1303      C1308   1.508       .  S
C1304      C1305   1.402       .  A
C1304      H1309   1.085       .  S
C1305      C1306   1.417       .  A
C1306      C1310   1.508       .  S
C1307      C1312   1.408       .  A
C1307      C1316   1.400       .  A
C1308      H1324   1.110       .  S
C1308      H1325   1.110       .  S
C1308      H1326   1.111       .  S
C1310      H1321   1.110       .  S
C1310      H1322   1.111       .  S
C1310      H1323   1.106       .  S
C1312      C1313   1.401       .  A
C1312      C1317   1.506       .  S
C1313      C1314   1.405       .  A
C1313      H1318   1.084       .  S
C1314      C1315   1.417       .  A
C1315      C1316   1.401       .  A
C1315      C1319   1.509       .  S
C1316      H1320   1.085       .  S
C1317      H1327   1.111       .  S
C1317      H1328   1.110       .  S
C1317      H1329   1.110       .  S
C1319      H1330   1.110       .  S
C1319      H1331   1.105       .  S
C1319      H1332   1.111       .  S
