geometry optimzed in LAMMPS
_audit_creation_date              2020-11-30 
_audit_creation_method            'lammps2cif' 
_symmetry_space_group_name_H-M    'P1' 
_symmetry_Int_Tables_number       1 
_symmetry_cell_setting            triclinic 
loop_ 
_symmetry_equiv_pos_as_xyz 
  x,y,z 
_cell_length_a                    27.474829349598807 
_cell_length_b                    27.5803666499119 
_cell_length_c                    27.527758878316753 
_cell_angle_alpha                 83.4480366975128 
_cell_angle_beta                  84.89549867823712 
_cell_angle_gamma                 95.29850119518957 
loop_ 
_atom_site_label 
_atom_site_type_symbol 
_atom_site_fract_x 
_atom_site_fract_y 
_atom_site_fract_z 
_atom_site_charge 
C1          C  0.09630081  0.29649954  0.51476609     0.03060
C2          C  0.14720527  0.29585312  0.00807311    -0.13090
C3          C  0.16713611  0.25157445  0.00443953     0.00560
C4          C  0.13728483  0.20950370  0.99961077    -0.11610
C5          C  0.08703724  0.20726867  0.51212091     0.03050
C6          C  0.06565179  0.25131045  0.51880594    -0.11030
H7          H  0.17110269  0.32825985  0.01261077     0.08650
H8          H  0.15418042  0.17570022  0.99666297     0.06180
H9          H  0.02659091  0.25019063  0.52922508     0.06030
C10         C  0.40478185  0.17591201  0.11254711     0.03060
C11         C  0.43350781  0.22178153  0.11249083    -0.13090
C12         C  0.40987212  0.26556969  0.11320767     0.00560
C13         C  0.35894701  0.26220308  0.11557551    -0.11610
C14         C  0.33248573  0.21894633  0.10843432     0.03050
C15         C  0.35426038  0.17539002  0.10989416    -0.11030
H16         H  0.47321498  0.22362192  0.10896672     0.08650
H17         H  0.34023537  0.29527514  0.11456871     0.06180
H18         H  0.33297057  0.14221925  0.10286296     0.06030
C19         C  0.19015313  0.43635603  0.16195594     0.03060
C20         C  0.23582360  0.43711757  0.13276542    -0.13090
C21         C  0.27993824  0.43477663  0.15591489     0.00560
C22         C  0.27714294  0.42940441  0.20688201    -0.11610
C23         C  0.23446135  0.43775567  0.23392434     0.03050
C24         C  0.19033912  0.43776459  0.21254256    -0.11030
H25         H  0.23725865  0.44252361  0.09305598     0.08650
H26         H  0.31064214  0.42870330  0.22504503     0.06180
H27         H  0.15737016  0.44515043  0.23401623     0.06030
C28         C  0.30910059  0.03825737  0.46628498     0.03060
C29         C  0.30787841  0.04260262  0.41536683    -0.13090
C30         C  0.26318793  0.04572954  0.39534669     0.00560
C31         C  0.22137750  0.05244334  0.42486592    -0.11610
C32         C  0.21966082  0.04106244  0.47545760     0.03050
C33         C  0.26410136  0.03510976  0.99698496    -0.11030
H34         H  0.34026841  0.03682592  0.39204835     0.08650
H35         H  0.18729287  0.05543444  0.40803554     0.06180
H36         H  0.26341781  0.02553594  0.03632399     0.06030
C37         C  0.05068997  0.08262715  0.25344728     0.03060
C38         C  0.05568963  0.13361433  0.25187371    -0.13090
C39         C  0.05641161  0.15457444  0.29543048     0.00560
C40         C  0.06032507  0.12617649  0.33945275    -0.11610
C41         C  0.05059743  0.07558622  0.34331146     0.03050
C42         C  0.04641695  0.05297804  0.29983884    -0.11030
H43         H  0.05143031  0.15645828  0.21803191     0.08650
H44         H  0.06123115  0.14399842  0.37264832     0.06180
H45         H  0.03743026  0.01365718  0.30218309     0.06030
C46         C  0.45180772  0.39120103  0.37636129     0.03060
C47         C  0.45693509  0.34111976  0.37857647    -0.13090
C48         C  0.46083577  0.31943615  0.33551971     0.00560
C49         C  0.45295412  0.34472113  0.29117307    -0.11610
C50         C  0.45274350  0.39530400  0.28634343     0.03050
C51         C  0.45147360  0.41928557  0.32952490    -0.11030
H52         H  0.46440854  0.32062058  0.41268876     0.08650
H53         H  0.45527291  0.32574097  0.25868959     0.06180
H54         H  0.45343223  0.45892209  0.32658817     0.06030
O55         O  0.08151412  0.37960864  0.99261856    -0.86560
O56         O  0.44223032  0.45944084  0.22357210    -0.86720
O57         O  0.10865455  0.41218208  0.14366858    -0.88390
O58         O  0.47406270  0.32715859  0.12329946    -0.87150
O59         O  0.41340245  0.34718874  0.07457594    -0.86740
O60         O  0.14153678  0.49257352  0.12455337    -0.88110
O61         O  0.49027446  0.39889140  0.20489102    -0.86590
O62         O  0.06086173  0.34372545  0.07222051    -0.86170
Zr63       Zr  0.02457236  0.40485177  0.11771793     2.84310
O64         O  0.44554975  0.43145441  0.11938699    -1.08150
O65         O  0.07896482  0.46083654  0.06387927    -1.08880
C66         C  0.07784048  0.34276515  0.02709476     1.06550
C67         C  0.46252290  0.42016132  0.23521307     1.06490
C68         C  0.14415113  0.44723998  0.14086846     1.09480
C69         C  0.43486750  0.31627806  0.10277678     1.07260
H70         H  0.03864307  0.47939953  0.17499297     0.32810
O71         O  0.02643547  0.48270160  0.14314567    -1.29100
H72         H  0.49414357  0.37707722  0.02684387     0.32490
O73         O  0.49718453  0.40859529  0.03884646    -1.30780
O74         O  0.42269947  0.09420376  0.13735773    -0.86550
O75         O  0.05895621  0.01210260  0.40670430    -0.88050
O76         O  0.07306941  0.06687357  0.17170486    -0.86630
O77         O  0.34145617  0.42768061  0.09109705    -0.86680
O78         O  0.42645205  0.41016287  0.45660729    -0.86390
O79         O  0.15765645  0.04725345  0.03959517    -0.86190
O80         O  0.02363585  0.14504802  0.00425220    -0.86560
O81         O  0.39162263  0.06056698  0.48209281    -0.86030
O82         O  0.08354964  0.12738156  0.05486976    -0.87090
O83         O  0.35739073  0.48080558  0.00272140    -0.86250
O84         O  0.49361061  0.04585175  0.20641543    -0.86650
O85         O  0.14062615  0.49783605  0.48011476    -0.86370
O86         O  0.50683593  0.42905735  0.42393146    -0.86020
O87         O  0.36048474  0.47488765  0.15175249    -0.86430
O88         O  0.44144652  0.12834706  0.05695043    -0.86720
O89         O  0.50899413  0.07194937  0.42302843    -0.88060
Zr90       Zr  0.44756201  0.00995729  0.14523362     2.83100
Zr91       Zr  0.05360813  0.46271232  0.48539738     2.83500
Zr92       Zr  0.07973784  0.03966362  0.08920379     2.84090
Zr93       Zr  0.41891313  0.43477073  0.04030847     2.83360
Zr94       Zr  0.47475504  0.06689794  0.01030748     2.84220
O95         O  0.47437877  0.48888726  0.98594897    -1.08630
O96         O  0.50114050  0.06454514  0.08949187    -1.08130
C97         C  0.42581967  0.13033070  0.10220803     1.06520
C98         C  0.03793578  0.05060326  0.39389649     1.09140
C99         C  0.03868787  0.06307826  0.20784593     1.06700
C100        C  0.33022873  0.44687533  0.13049477     1.07060
C101        C  0.46164780  0.41313574  0.42132979     1.06640
C102        C  0.16989468  0.02706870  0.00111286     1.06190
C103        C  0.06195125  0.15712588  0.02551858     1.06620
C104        C  0.35556214  0.02603646  0.48543389     1.06130
H105        H  0.07675801  0.06455989  0.48706698     0.32800
O106        O  0.05434948  0.04177712  0.00970613    -1.29730
H107        H  0.38902347  0.02498400  0.06996305     0.32830
O108        O  0.42092498  0.01306916  0.06700896    -1.31120
C109        C  0.05942266  0.24319924  0.29732444    -0.12330
C110        C  0.03160173  0.19803575  0.30054160     0.04670
C111        C  0.48149626  0.19213131  0.31933450    -0.07620
C112        C  0.46038875  0.23170059  0.33597936    -0.08370
C113        C  0.48780304  0.27715375  0.33210046    -0.02920
C114        C  0.03784887  0.28363357  0.31209492     0.03900
N115        N  0.06631857  0.33098065  0.30439692     0.66410
H116        H  0.09809505  0.24661933  0.28409616     0.15300
H117        H  0.42163927  0.22781713  0.34905007     0.15020
N118        N  0.45197235  0.14595993  0.32208655     0.74110
O119        O  0.10100830  0.34020412  0.27031381    -0.39340
O120        O  0.05892838  0.36281671  0.33293982    -0.39280
O121        O  0.42420721  0.12966418  0.36063203    -0.39990
O122        O  0.44853496  0.12486526  0.28401685    -0.40050
C123        C  0.27203444  0.00860199  0.26791891    -0.12330
C124        C  0.24084051  0.46424847  0.27619701     0.04670
C125        C  0.21602991  0.44814737  0.32275411    -0.07620
C126        C  0.22327684  0.47710467  0.36017295    -0.08370
C127        C  0.25483078  0.02123525  0.35212739    -0.02920
C128        C  0.27990440  0.03729004  0.30557081     0.03900
N129        N  0.31281253  0.08193625  0.29578453     0.66410
H130        H  0.29000550  0.02116809  0.23138993     0.15300
H131        H  0.20563013  0.46406559  0.39672965     0.15020
N132        N  0.18519009  0.40229891  0.33317457     0.74110
O133        O  0.34573904  0.08759194  0.25996784    -0.39340
O134        O  0.30720805  0.11721730  0.32050608    -0.39280
O135        O  0.19518447  0.36588330  0.31163429    -0.39990
O136        O  0.15130689  0.39630971  0.36810754    -0.40050
C137        C  0.29763988  0.24751874  0.03356448    -0.12330
C138        C  0.28942767  0.22414539  0.08226319     0.04670
C139        C  0.24172008  0.20921067  0.10453177    -0.07620
C140        C  0.20282959  0.21899374  0.07715518    -0.08370
C141        C  0.21088723  0.24301305  0.02868486    -0.02920
C142        C  0.25864785  0.25730807  0.00607430     0.03900
N143        N  0.26821041  0.28130269  0.45624838     0.66410
H144        H  0.33499779  0.25826227  0.01715068     0.15300
H145        H  0.16554721  0.20865231  0.09398584     0.15020
N146        N  0.23201089  0.18524320  0.15432344     0.74110
O147        O  0.30901822  0.30599875  0.44196552    -0.39340
O148        O  0.23748065  0.27560447  0.42536283    -0.39280
O149        O  0.26079806  0.19389488  0.18629344    -0.39990
O150        O  0.19257888  0.15776382  0.16745648    -0.40050
C151        C  0.09630081  0.29649954  0.01476610     0.03060
C152        C  0.14720527  0.29585312  0.50807309    -0.13090
C153        C  0.16713611  0.25157445  0.50443951     0.00560
C154        C  0.13728483  0.20950370  0.49961076    -0.11610
C155        C  0.08703724  0.20726867  0.01212092     0.03050
C156        C  0.06565179  0.25131045  0.01880595    -0.11030
H157        H  0.17110270  0.32825985  0.51261075     0.08650
H158        H  0.15418041  0.17570022  0.49666295     0.06180
H159        H  0.02659091  0.25019063  0.02922508     0.06030
C160        C  0.40478185  0.17591202  0.61254711     0.03060
C161        C  0.43350781  0.22178153  0.61249084    -0.13090
C162        C  0.40987212  0.26556969  0.61320767     0.00560
C163        C  0.35894700  0.26220308  0.61557549    -0.11610
C164        C  0.33248574  0.21894633  0.60843430     0.03050
C165        C  0.35426038  0.17539002  0.60989415    -0.11030
H166        H  0.47321498  0.22362192  0.60896673     0.08650
H167        H  0.34023537  0.29527515  0.61456869     0.06180
H168        H  0.33297057  0.14221925  0.60286294     0.06030
C169        C  0.19015313  0.43635603  0.66195594     0.03060
C170        C  0.23582360  0.43711757  0.63276543    -0.13090
C171        C  0.27993825  0.43477664  0.65591490     0.00560
C172        C  0.27714294  0.42940443  0.70688201    -0.11610
C173        C  0.23446135  0.43775570  0.73392435     0.03050
C174        C  0.19033912  0.43776460  0.71254256    -0.11030
H175        H  0.23725865  0.44252359  0.59305599     0.08650
H176        H  0.31064214  0.42870333  0.72504504     0.06180
H177        H  0.15737016  0.44515044  0.73401623     0.06030
C178        C  0.30910059  0.03825738  0.96628498     0.03060
C179        C  0.30787841  0.04260266  0.91536683    -0.13090
C180        C  0.26318793  0.04572959  0.89534670     0.00560
C181        C  0.22137750  0.05244339  0.92486593    -0.11610
C182        C  0.21966082  0.04106245  0.97545761     0.03050
C183        C  0.26410136  0.03510977  0.49698496    -0.11030
H184        H  0.34026841  0.03682597  0.89204835     0.08650
H185        H  0.18729287  0.05543451  0.90803556     0.06180
H186        H  0.26341781  0.02553597  0.53632399     0.06030
C187        C  0.05068997  0.08262716  0.75344728     0.03060
C188        C  0.05568963  0.13361434  0.75187371    -0.13090
C189        C  0.05641164  0.15457445  0.79543047     0.00560
C190        C  0.06032509  0.12617650  0.83945275    -0.11610
C191        C  0.05059744  0.07558623  0.84331146     0.03050
C192        C  0.04641695  0.05297805  0.79983884    -0.11030
H193        H  0.05143031  0.15645829  0.71803191     0.08650
H194        H  0.06123117  0.14399843  0.87264832     0.06180
H195        H  0.03743025  0.01365719  0.80218309     0.06030
C196        C  0.45180772  0.39120103  0.87636129     0.03060
C197        C  0.45693509  0.34111975  0.87857647    -0.13090
C198        C  0.46083578  0.31943615  0.83551971     0.00560
C199        C  0.45295413  0.34472112  0.79117307    -0.11610
C200        C  0.45274351  0.39530400  0.78634343     0.03050
C201        C  0.45147361  0.41928556  0.82952490    -0.11030
H202        H  0.46440854  0.32062057  0.91268876     0.08650
H203        H  0.45527292  0.32574096  0.75868959     0.06180
H204        H  0.45343224  0.45892209  0.82658817     0.06030
O205        O  0.08151412  0.37960865  0.49261855    -0.86560
O206        O  0.44223033  0.45944084  0.72357210    -0.86720
O207        O  0.10865455  0.41218208  0.64366858    -0.88390
O208        O  0.47406270  0.32715859  0.62329946    -0.87150
O209        O  0.41340245  0.34718875  0.57457594    -0.86740
O210        O  0.14153678  0.49257351  0.62455336    -0.88110
O211        O  0.49027447  0.39889140  0.70489102    -0.86590
O212        O  0.06086173  0.34372545  0.57222050    -0.86170
Zr213      Zr  0.02457236  0.40485176  0.61771793     2.84310
O214        O  0.44554975  0.43145441  0.61938699    -1.08150
O215        O  0.07896482  0.46083654  0.56387927    -1.08880
C216        C  0.07784048  0.34276515  0.52709475     1.06550
C217        C  0.46252290  0.42016131  0.73521307     1.06490
C218        C  0.14415113  0.44723998  0.64086846     1.09480
C219        C  0.43486750  0.31627807  0.60277678     1.07260
H220        H  0.03864308  0.47939953  0.67499297     0.32810
O221        O  0.02643548  0.48270159  0.64314567    -1.29100
H222        H  0.49414357  0.37707722  0.52684387     0.32490
O223        O  0.49718453  0.40859530  0.53884646    -1.30780
O224        O  0.42269947  0.09420376  0.63735773    -0.86550
O225        O  0.05895621  0.01210260  0.90670430    -0.88050
O226        O  0.07306941  0.06687358  0.67170486    -0.86630
O227        O  0.34145617  0.42768061  0.59109706    -0.86680
O228        O  0.42645206  0.41016287  0.95660729    -0.86390
O229        O  0.15765646  0.04725345  0.53959516    -0.86190
O230        O  0.02363585  0.14504802  0.50425220    -0.86560
O231        O  0.39162263  0.06056698  0.98209280    -0.86030
O232        O  0.08354964  0.12738157  0.55486976    -0.87090
O233        O  0.35739073  0.48080559  0.50272141    -0.86250
O234        O  0.49361062  0.04585175  0.70641543    -0.86650
O235        O  0.14062615  0.49783605  0.98011477    -0.86370
O236        O  0.50683593  0.42905735  0.92393146    -0.86020
O237        O  0.36048474  0.47488766  0.65175250    -0.86430
O238        O  0.44144651  0.12834706  0.55695043    -0.86720
O239        O  0.50899414  0.07194937  0.92302843    -0.88060
Zr240      Zr  0.44756201  0.00995729  0.64523362     2.83100
Zr241      Zr  0.05360813  0.46271232  0.98539739     2.83500
Zr242      Zr  0.07973784  0.03966362  0.58920379     2.84090
Zr243      Zr  0.41891313  0.43477073  0.54030847     2.83360
Zr244      Zr  0.47475504  0.06689794  0.51030748     2.84220
O245        O  0.47437876  0.48888726  0.48594897    -1.08630
O246        O  0.50114050  0.06454514  0.58949187    -1.08130
C247        C  0.42581967  0.13033070  0.60220803     1.06520
C248        C  0.03793578  0.05060327  0.89389649     1.09140
C249        C  0.03868787  0.06307827  0.70784593     1.06700
C250        C  0.33022873  0.44687533  0.63049478     1.07060
C251        C  0.46164780  0.41313573  0.92132979     1.06640
C252        C  0.16989468  0.02706869  0.50111285     1.06190
C253        C  0.06195125  0.15712588  0.52551857     1.06620
C254        C  0.35556214  0.02603646  0.98543388     1.06130
H255        H  0.07675801  0.06455989  0.98706698     0.32800
O256        O  0.05434948  0.04177712  0.50970613    -1.29730
H257        H  0.38902347  0.02498400  0.56996306     0.32830
O258        O  0.42092498  0.01306916  0.56700896    -1.31120
C259        C  0.05942269  0.24319925  0.79732449    -0.12330
C260        C  0.03160176  0.19803577  0.80054160     0.04670
C261        C  0.48149628  0.19213131  0.81933448    -0.07620
C262        C  0.46038876  0.23170059  0.83597934    -0.08370
C263        C  0.48780305  0.27715375  0.83210046    -0.02920
C264        C  0.03784888  0.28363357  0.81209496     0.03900
N265        N  0.06631859  0.33098066  0.80439699     0.66410
H266        H  0.09809509  0.24661934  0.78409623     0.15300
H267        H  0.42163928  0.22781712  0.84905004     0.15020
N268        N  0.45197237  0.14595993  0.82208650     0.74110
O269        O  0.10100834  0.34020413  0.77031390    -0.39340
O270        O  0.05892837  0.36281670  0.83293989    -0.39280
O271        O  0.42420723  0.12966416  0.86063198    -0.39990
O272        O  0.44853497  0.12486529  0.78401678    -0.40050
C273        C  0.27203444  0.00860205  0.76791890    -0.12330
C274        C  0.24084050  0.46424850  0.77619701     0.04670
C275        C  0.21602992  0.44814739  0.82275412    -0.07620
C276        C  0.22327686  0.47710468  0.86017296    -0.08370
C277        C  0.25483077  0.02123532  0.85212739    -0.02920
C278        C  0.27990440  0.03729011  0.80557081     0.03900
N279        N  0.31281253  0.08193631  0.79578453     0.66410
H280        H  0.29000551  0.02116815  0.73138993     0.15300
H281        H  0.20563016  0.46406560  0.89672966     0.15020
N282        N  0.18519012  0.40229892  0.83317458     0.74110
O283        O  0.34573904  0.08759200  0.75996784    -0.39340
O284        O  0.30720807  0.11721736  0.82050608    -0.39280
O285        O  0.19518452  0.36588330  0.81163430    -0.39990
O286        O  0.15130693  0.39630970  0.86810756    -0.40050
C287        C  0.29763988  0.24751873  0.53356446    -0.12330
C288        C  0.28942767  0.22414540  0.58226317     0.04670
C289        C  0.24172008  0.20921067  0.60453175    -0.07620
C290        C  0.20282960  0.21899374  0.57715516    -0.08370
C291        C  0.21088723  0.24301305  0.52868484    -0.02920
C292        C  0.25864785  0.25730807  0.50607428     0.03900
N293        N  0.26821041  0.28130270  0.95624840     0.66410
H294        H  0.33499780  0.25826227  0.51715065     0.15300
H295        H  0.16554721  0.20865232  0.59398582     0.15020
N296        N  0.23201089  0.18524321  0.65432343     0.74110
O297        O  0.30901822  0.30599876  0.94196555    -0.39340
O298        O  0.23748065  0.27560448  0.92536285    -0.39280
O299        O  0.26079806  0.19389489  0.68629342    -0.39990
O300        O  0.19257888  0.15776383  0.66745647    -0.40050
C301        C  0.09630081  0.79649954  0.51476609     0.03060
C302        C  0.14720527  0.79585313  0.00807309    -0.13090
C303        C  0.16713610  0.75157446  0.00443950     0.00560
C304        C  0.13728483  0.70950371  0.99961075    -0.11610
C305        C  0.08703724  0.70726867  0.51212091     0.03050
C306        C  0.06565179  0.75131045  0.51880594    -0.11030
H307        H  0.17110269  0.82825985  0.01261074     0.08650
H308        H  0.15418041  0.67570023  0.99666295     0.06180
H309        H  0.02659091  0.75019063  0.52922508     0.06030
C310        C  0.40478184  0.67591201  0.11254710     0.03060
C311        C  0.43350781  0.72178153  0.11249083    -0.13090
C312        C  0.40987212  0.76556969  0.11320766     0.00560
C313        C  0.35894700  0.76220308  0.11557548    -0.11610
C314        C  0.33248573  0.71894633  0.10843429     0.03050
C315        C  0.35426037  0.67539002  0.10989413    -0.11030
H316        H  0.47321497  0.72362191  0.10896673     0.08650
H317        H  0.34023537  0.79527514  0.11456869     0.06180
H318        H  0.33297057  0.64221925  0.10286292     0.06030
C319        C  0.19015313  0.93635601  0.16195594     0.03060
C320        C  0.23582359  0.93711756  0.13276542    -0.13090
C321        C  0.27993824  0.93477662  0.15591489     0.00560
C322        C  0.27714293  0.92940439  0.20688201    -0.11610
C323        C  0.23446134  0.93775565  0.23392435     0.03050
C324        C  0.19033911  0.93776456  0.21254256    -0.11030
H325        H  0.23725864  0.94252361  0.09305598     0.08650
H326        H  0.31064213  0.92870328  0.22504504     0.06180
H327        H  0.15737015  0.94515040  0.23401623     0.06030
C328        C  0.30910059  0.53825738  0.46628498     0.03060
C329        C  0.30787841  0.54260264  0.41536683    -0.13090
C330        C  0.26318793  0.54572956  0.39534669     0.00560
C331        C  0.22137751  0.55244337  0.42486592    -0.11610
C332        C  0.21966083  0.54106245  0.47545760     0.03050
C333        C  0.26410136  0.53510977  0.99698496    -0.11030
H334        H  0.34026841  0.53682594  0.39204835     0.08650
H335        H  0.18729288  0.55543448  0.40803555     0.06180
H336        H  0.26341781  0.52553595  0.03632399     0.06030
C337        C  0.05068996  0.58262716  0.25344728     0.03060
C338        C  0.05568964  0.63361434  0.25187371    -0.13090
C339        C  0.05641165  0.65457445  0.29543047     0.00560
C340        C  0.06032511  0.62617650  0.33945274    -0.11610
C341        C  0.05059745  0.57558623  0.34331145     0.03050
C342        C  0.04641694  0.55297805  0.29983884    -0.11030
H343        H  0.05143032  0.65645830  0.21803191     0.08650
H344        H  0.06123120  0.64399843  0.37264832     0.06180
H345        H  0.03743024  0.51365719  0.30218309     0.06030
C346        C  0.45180772  0.89120103  0.37636130     0.03060
C347        C  0.45693510  0.84111975  0.37857647    -0.13090
C348        C  0.46083578  0.81943615  0.33551971     0.00560
C349        C  0.45295412  0.84472113  0.29117308    -0.11610
C350        C  0.45274350  0.89530400  0.28634343     0.03050
C351        C  0.45147360  0.91928557  0.32952490    -0.11030
H352        H  0.46440855  0.82062058  0.41268876     0.08650
H353        H  0.45527290  0.82574097  0.25868959     0.06180
H354        H  0.45343223  0.95892209  0.32658817     0.06030
O355        O  0.08151412  0.87960865  0.99261855    -0.86560
O356        O  0.44223031  0.95944084  0.22357210    -0.86720
O357        O  0.10865454  0.91218207  0.14366858    -0.88390
O358        O  0.47406269  0.82715859  0.12329946    -0.87150
O359        O  0.41340244  0.84718875  0.07457593    -0.86740
O360        O  0.14153677  0.99257351  0.12455336    -0.88110
O361        O  0.49027445  0.89889140  0.20489103    -0.86590
O362        O  0.06086172  0.84372545  0.07222050    -0.86170
Zr363      Zr  0.02457235  0.90485176  0.11771793     2.84310
O364        O  0.44554974  0.93145441  0.11938699    -1.08150
O365        O  0.07896482  0.96083654  0.06387927    -1.08880
C366        C  0.07784047  0.84276515  0.02709475     1.06550
C367        C  0.46252289  0.92016131  0.23521308     1.06490
C368        C  0.14415112  0.94723997  0.14086846     1.09480
C369        C  0.43486749  0.81627806  0.10277678     1.07260
H370        H  0.03864307  0.97939952  0.17499297     0.32810
O371        O  0.02643547  0.98270159  0.14314567    -1.29100
H372        H  0.49414356  0.87707722  0.02684388     0.32490
O373        O  0.49718452  0.90859529  0.03884646    -1.30780
O374        O  0.42269948  0.59420376  0.13735773    -0.86550
O375        O  0.05895622  0.51210260  0.40670430    -0.88050
O376        O  0.07306941  0.56687359  0.17170486    -0.86630
O377        O  0.34145616  0.92768061  0.09109706    -0.86680
O378        O  0.42645205  0.91016287  0.45660730    -0.86390
O379        O  0.15765646  0.54725346  0.03959516    -0.86190
O380        O  0.02363586  0.64504802  0.00425219    -0.86560
O381        O  0.39162264  0.56056699  0.48209280    -0.86030
O382        O  0.08354964  0.62738157  0.05486976    -0.87090
O383        O  0.35739073  0.98080558  0.00272140    -0.86250
O384        O  0.49361064  0.54585175  0.20641542    -0.86650
O385        O  0.14062615  0.99783605  0.48011477    -0.86370
O386        O  0.50683593  0.92905735  0.42393147    -0.86020
O387        O  0.36048473  0.97488765  0.15175250    -0.86430
O388        O  0.44144652  0.62834706  0.05695042    -0.86720
O389        O  0.50899413  0.57194936  0.42302842    -0.88060
Zr390      Zr  0.44756202  0.50995729  0.14523361     2.83100
Zr391      Zr  0.05360812  0.96271232  0.48539739     2.83500
Zr392      Zr  0.07973784  0.53966362  0.08920379     2.84090
Zr393      Zr  0.41891313  0.93477073  0.04030847     2.83360
Zr394      Zr  0.47475504  0.56689794  0.01030748     2.84220
O395        O  0.47437876  0.98888726  0.98594897    -1.08630
O396        O  0.50114051  0.56454514  0.08949186    -1.08130
C397        C  0.42581967  0.63033070  0.10220802     1.06520
C398        C  0.03793579  0.55060327  0.39389648     1.09140
C399        C  0.03868786  0.56307827  0.20784592     1.06700
C400        C  0.33022872  0.94687532  0.13049478     1.07060
C401        C  0.46164780  0.91313573  0.42132980     1.06640
C402        C  0.16989469  0.52706870  0.00111286     1.06190
C403        C  0.06195125  0.65712588  0.02551857     1.06620
C404        C  0.35556214  0.52603646  0.48543389     1.06130
H405        H  0.07675802  0.56455989  0.48706698     0.32800
O406        O  0.05434948  0.54177712  0.00970613    -1.29730
H407        H  0.38902348  0.52498400  0.06996305     0.32830
O408        O  0.42092499  0.51306915  0.06700896    -1.31120
C409        C  0.05942270  0.74319926  0.29732448    -0.12330
C410        C  0.03160178  0.69803577  0.30054161     0.04670
C411        C  0.48149625  0.69213130  0.31933451    -0.07620
C412        C  0.46038875  0.73170059  0.33597937    -0.08370
C413        C  0.48780305  0.77715375  0.33210045    -0.02920
C414        C  0.03784889  0.78363358  0.31209495     0.03900
N415        N  0.06631859  0.83098067  0.30439696     0.66410
H416        H  0.09809510  0.74661935  0.28409621     0.15300
H417        H  0.42163928  0.72781713  0.34905008     0.15020
N418        N  0.45197233  0.64595992  0.32208658     0.74110
O419        O  0.10100831  0.84020415  0.27031384    -0.39340
O420        O  0.05892839  0.86281671  0.33293987    -0.39280
O421        O  0.42420704  0.62966429  0.36063199    -0.39990
O422        O  0.44853508  0.62486513  0.28401693    -0.40050
C423        C  0.27203449  0.50860200  0.26791891    -0.12330
C424        C  0.24084050  0.96424845  0.27619701     0.04670
C425        C  0.21602992  0.94814733  0.32275413    -0.07620
C426        C  0.22327687  0.97710462  0.36017296    -0.08370
C427        C  0.25483079  0.52123529  0.35212738    -0.02920
C428        C  0.27990444  0.53729005  0.30557082     0.03900
N429        N  0.31281260  0.58193623  0.29578455     0.66410
H430        H  0.29000557  0.52116808  0.23138995     0.15300
H431        H  0.20563018  0.96406553  0.39672968     0.15020
N432        N  0.18519013  0.90229885  0.33317459     0.74110
O433        O  0.34573916  0.58759188  0.25996791    -0.39340
O434        O  0.30720811  0.61721731  0.32050606    -0.39280
O435        O  0.19518450  0.86588325  0.31163428    -0.39990
O436        O  0.15130696  0.89630962  0.36810759    -0.40050
C437        C  0.29763988  0.74751873  0.03356445    -0.12330
C438        C  0.28942767  0.72414539  0.08226316     0.04670
C439        C  0.24172007  0.70921068  0.10453174    -0.07620
C440        C  0.20282959  0.71899375  0.07715515    -0.08370
C441        C  0.21088723  0.74301305  0.02868483    -0.02920
C442        C  0.25864785  0.75730807  0.00607427     0.03900
N443        N  0.26821041  0.78130270  0.45624839     0.66410
H444        H  0.33499779  0.75826226  0.01715064     0.15300
H445        H  0.16554721  0.70865234  0.09398582     0.15020
N446        N  0.23201088  0.68524322  0.15432342     0.74110
O447        O  0.30901822  0.80599875  0.44196553    -0.39340
O448        O  0.23748065  0.77560448  0.42536284    -0.39280
O449        O  0.26079806  0.69389489  0.18629341    -0.39990
O450        O  0.19257887  0.65776385  0.16745647    -0.40050
C451        C  0.09630080  0.79649954  0.01476609     0.03060
C452        C  0.14720527  0.79585312  0.50807310    -0.13090
C453        C  0.16713610  0.75157445  0.50443952     0.00560
C454        C  0.13728483  0.70950370  0.49961076    -0.11610
C455        C  0.08703724  0.70726867  0.01212091     0.03050
C456        C  0.06565179  0.75131045  0.01880594    -0.11030
H457        H  0.17110269  0.82825985  0.51261076     0.08650
H458        H  0.15418042  0.67570023  0.49666296     0.06180
H459        H  0.02659091  0.75019063  0.02922508     0.06030
C460        C  0.40478185  0.67591201  0.61254711     0.03060
C461        C  0.43350781  0.72178153  0.61249084    -0.13090
C462        C  0.40987212  0.76556969  0.61320767     0.00560
C463        C  0.35894700  0.76220308  0.61557550    -0.11610
C464        C  0.33248574  0.71894633  0.60843431     0.03050
C465        C  0.35426038  0.67539002  0.60989415    -0.11030
H466        H  0.47321498  0.72362192  0.60896673     0.08650
H467        H  0.34023537  0.79527514  0.61456870     0.06180
H468        H  0.33297057  0.64221925  0.60286294     0.06030
C469        C  0.19015313  0.93635603  0.66195595     0.03060
C470        C  0.23582359  0.93711756  0.63276543    -0.13090
C471        C  0.27993824  0.93477664  0.65591490     0.00560
C472        C  0.27714293  0.92940444  0.70688202    -0.11610
C473        C  0.23446134  0.93775570  0.73392435     0.03050
C474        C  0.19033911  0.93776460  0.71254256    -0.11030
H475        H  0.23725864  0.94252359  0.59305599     0.08650
H476        H  0.31064214  0.92870334  0.72504505     0.06180
H477        H  0.15737015  0.94515045  0.73401623     0.06030
C478        C  0.30910059  0.53825738  0.96628498     0.03060
C479        C  0.30787841  0.54260265  0.91536683    -0.13090
C480        C  0.26318793  0.54572958  0.89534670     0.00560
C481        C  0.22137750  0.55244339  0.92486593    -0.11610
C482        C  0.21966083  0.54106245  0.97545761     0.03050
C483        C  0.26410136  0.53510977  0.49698496    -0.11030
H484        H  0.34026841  0.53682596  0.89204835     0.08650
H485        H  0.18729288  0.55543450  0.90803556     0.06180
H486        H  0.26341781  0.52553596  0.53632399     0.06030
C487        C  0.05068998  0.58262716  0.75344728     0.03060
C488        C  0.05568964  0.63361434  0.75187371    -0.13090
C489        C  0.05641163  0.65457444  0.79543047     0.00560
C490        C  0.06032508  0.62617649  0.83945275    -0.11610
C491        C  0.05059744  0.57558622  0.84331146     0.03050
C492        C  0.04641696  0.55297804  0.79983884    -0.11030
H493        H  0.05143032  0.65645829  0.71803191     0.08650
H494        H  0.06123116  0.64399842  0.87264832     0.06180
H495        H  0.03743027  0.51365718  0.80218309     0.06030
C496        C  0.45180772  0.89120103  0.87636130     0.03060
C497        C  0.45693509  0.84111975  0.87857647    -0.13090
C498        C  0.46083578  0.81943615  0.83551971     0.00560
C499        C  0.45295412  0.84472113  0.79117307    -0.11610
C500        C  0.45274350  0.89530400  0.78634343     0.03050
C501        C  0.45147361  0.91928557  0.82952490    -0.11030
H502        H  0.46440855  0.82062058  0.91268876     0.08650
H503        H  0.45527291  0.82574097  0.75868959     0.06180
H504        H  0.45343224  0.95892209  0.82658817     0.06030
O505        O  0.08151411  0.87960864  0.49261855    -0.86560
O506        O  0.44223032  0.95944084  0.72357210    -0.86720
O507        O  0.10865455  0.91218208  0.64366858    -0.88390
O508        O  0.47406270  0.82715859  0.62329946    -0.87150
O509        O  0.41340244  0.84718875  0.57457594    -0.86740
O510        O  0.14153677  0.99257351  0.62455336    -0.88110
O511        O  0.49027446  0.89889140  0.70489103    -0.86590
O512        O  0.06086172  0.84372545  0.57222051    -0.86170
Zr513      Zr  0.02457235  0.90485176  0.61771793     2.84310
O514        O  0.44554975  0.93145441  0.61938700    -1.08150
O515        O  0.07896482  0.96083654  0.56387927    -1.08880
C516        C  0.07784047  0.84276515  0.52709476     1.06550
C517        C  0.46252290  0.92016131  0.73521308     1.06490
C518        C  0.14415113  0.94723998  0.64086846     1.09480
C519        C  0.43486750  0.81627806  0.60277678     1.07260
H520        H  0.03864307  0.97939953  0.67499297     0.32810
O521        O  0.02643548  0.98270159  0.64314567    -1.29100
H522        H  0.49414356  0.87707722  0.52684388     0.32490
O523        O  0.49718452  0.90859529  0.53884646    -1.30780
O524        O  0.42269948  0.59420376  0.63735773    -0.86550
O525        O  0.05895622  0.51210260  0.90670430    -0.88050
O526        O  0.07306942  0.56687358  0.67170486    -0.86630
O527        O  0.34145616  0.92768061  0.59109707    -0.86680
O528        O  0.42645205  0.91016287  0.95660729    -0.86390
O529        O  0.15765646  0.54725346  0.53959516    -0.86190
O530        O  0.02363586  0.64504802  0.50425219    -0.86560
O531        O  0.39162264  0.56056698  0.98209280    -0.86030
O532        O  0.08354964  0.62738157  0.55486976    -0.87090
O533        O  0.35739073  0.98080558  0.50272141    -0.86250
O534        O  0.49361064  0.54585175  0.70641542    -0.86650
O535        O  0.14062615  0.99783606  0.98011477    -0.86370
O536        O  0.50683593  0.92905735  0.92393147    -0.86020
O537        O  0.36048474  0.97488766  0.65175250    -0.86430
O538        O  0.44144652  0.62834706  0.55695042    -0.86720
O539        O  0.50899414  0.57194936  0.92302842    -0.88060
Zr540      Zr  0.44756202  0.50995729  0.64523361     2.83100
Zr541      Zr  0.05360813  0.96271233  0.98539738     2.83500
Zr542      Zr  0.07973785  0.53966362  0.58920378     2.84090
Zr543      Zr  0.41891313  0.93477073  0.54030848     2.83360
Zr544      Zr  0.47475504  0.56689794  0.51030748     2.84220
O545        O  0.47437876  0.98888726  0.48594897    -1.08630
O546        O  0.50114051  0.56454514  0.58949186    -1.08130
C547        C  0.42581967  0.63033070  0.60220803     1.06520
C548        C  0.03793579  0.55060326  0.89389648     1.09140
C549        C  0.03868787  0.56307826  0.70784592     1.06700
C550        C  0.33022873  0.94687533  0.63049478     1.07060
C551        C  0.46164780  0.91313573  0.92132980     1.06640
C552        C  0.16989469  0.52706870  0.50111285     1.06190
C553        C  0.06195125  0.65712588  0.52551857     1.06620
C554        C  0.35556214  0.52603646  0.98543388     1.06130
H555        H  0.07675801  0.56455989  0.98706698     0.32800
O556        O  0.05434949  0.54177712  0.50970613    -1.29730
H557        H  0.38902348  0.52498400  0.56996306     0.32830
O558        O  0.42092499  0.51306916  0.56700896    -1.31120
C559        C  0.05942267  0.74319924  0.79732447    -0.12330
C560        C  0.03160174  0.69803576  0.80054160     0.04670
C561        C  0.48149626  0.69213130  0.81933449    -0.07620
C562        C  0.46038875  0.73170059  0.83597935    -0.08370
C563        C  0.48780305  0.77715375  0.83210046    -0.02920
C564        C  0.03784888  0.78363357  0.81209495     0.03900
N565        N  0.06631858  0.83098065  0.80439697     0.66410
H566        H  0.09809507  0.74661934  0.78409620     0.15300
H567        H  0.42163927  0.72781713  0.84905006     0.15020
N568        N  0.45197234  0.64595992  0.82208653     0.74110
O569        O  0.10100833  0.84020412  0.77031387    -0.39340
O570        O  0.05892838  0.86281670  0.83293987    -0.39280
O571        O  0.42420712  0.62966424  0.86063198    -0.39990
O572        O  0.44853503  0.62486520  0.78401686    -0.40050
C573        C  0.27203445  0.50860204  0.76791891    -0.12330
C574        C  0.24084049  0.96424851  0.77619701     0.04670
C575        C  0.21602991  0.94814740  0.82275412    -0.07620
C576        C  0.22327685  0.97710469  0.86017296    -0.08370
C577        C  0.25483078  0.52123531  0.85212739    -0.02920
C578        C  0.27990441  0.53729009  0.80557081     0.03900
N579        N  0.31281255  0.58193629  0.79578454     0.66410
H580        H  0.29000553  0.52116813  0.73138994     0.15300
H581        H  0.20563016  0.96406560  0.89672967     0.15020
N582        N  0.18519011  0.90229893  0.83317458     0.74110
O583        O  0.34573908  0.58759197  0.75996787    -0.39340
O584        O  0.30720807  0.61721735  0.82050608    -0.39280
O585        O  0.19518450  0.86588331  0.81163431    -0.39990
O586        O  0.15130692  0.89630971  0.86810756    -0.40050
C587        C  0.29763988  0.74751874  0.53356447    -0.12330
C588        C  0.28942767  0.72414539  0.58226318     0.04670
C589        C  0.24172008  0.70921067  0.60453175    -0.07620
C590        C  0.20282959  0.71899374  0.57715517    -0.08370
C591        C  0.21088723  0.74301305  0.52868485    -0.02920
C592        C  0.25864785  0.75730808  0.50607429     0.03900
N593        N  0.26821041  0.78130270  0.95624837     0.66410
H594        H  0.33499779  0.75826227  0.51715066     0.15300
H595        H  0.16554721  0.70865232  0.59398583     0.15020
N596        N  0.23201089  0.68524320  0.65432343     0.74110
O597        O  0.30901822  0.80599875  0.94196552    -0.39340
O598        O  0.23748065  0.77560449  0.92536282    -0.39280
O599        O  0.26079806  0.69389488  0.68629342    -0.39990
O600        O  0.19257888  0.65776382  0.66745647    -0.40050
C601        C  0.59630081  0.29649954  0.51476609     0.03060
C602        C  0.64720527  0.29585312  0.00807311    -0.13090
C603        C  0.66713610  0.25157445  0.00443953     0.00560
C604        C  0.63728483  0.20950370  0.99961077    -0.11610
C605        C  0.58703724  0.20726867  0.51212092     0.03050
C606        C  0.56565179  0.25131045  0.51880594    -0.11030
H607        H  0.67110269  0.32825984  0.01261077     0.08650
H608        H  0.65418041  0.17570022  0.99666297     0.06180
H609        H  0.52659091  0.25019063  0.52922507     0.06030
C610        C  0.90478185  0.17591201  0.11254711     0.03060
C611        C  0.93350782  0.22178153  0.11249083    -0.13090
C612        C  0.90987212  0.26556969  0.11320767     0.00560
C613        C  0.85894701  0.26220308  0.11557550    -0.11610
C614        C  0.83248574  0.21894633  0.10843432     0.03050
C615        C  0.85426038  0.17539002  0.10989416    -0.11030
H616        H  0.97321498  0.22362192  0.10896672     0.08650
H617        H  0.84023538  0.29527514  0.11456871     0.06180
H618        H  0.83297057  0.14221925  0.10286295     0.06030
C619        C  0.69015313  0.43635602  0.16195594     0.03060
C620        C  0.73582360  0.43711757  0.13276542    -0.13090
C621        C  0.77993824  0.43477662  0.15591489     0.00560
C622        C  0.77714293  0.42940440  0.20688201    -0.11610
C623        C  0.73446135  0.43775566  0.23392435     0.03050
C624        C  0.69033912  0.43776457  0.21254256    -0.11030
H625        H  0.73725865  0.44252361  0.09305598     0.08650
H626        H  0.81064214  0.42870329  0.22504503     0.06180
H627        H  0.65737016  0.44515041  0.23401623     0.06030
C628        C  0.80910059  0.03825738  0.46628499     0.03060
C629        C  0.80787841  0.04260264  0.41536684    -0.13090
C630        C  0.76318793  0.04572956  0.39534670     0.00560
C631        C  0.72137750  0.05244337  0.42486592    -0.11610
C632        C  0.71966082  0.04106245  0.47545761     0.03050
C633        C  0.76410136  0.03510977  0.99698497    -0.11030
H634        H  0.84026841  0.03682594  0.39204836     0.08650
H635        H  0.68729287  0.05543447  0.40803555     0.06180
H636        H  0.76341781  0.02553594  0.03632400     0.06030
C637        C  0.55068995  0.08262716  0.25344729     0.03060
C638        C  0.55568962  0.13361434  0.25187372    -0.13090
C639        C  0.55641163  0.15457445  0.29543048     0.00560
C640        C  0.56032509  0.12617650  0.33945275    -0.11610
C641        C  0.55059743  0.07558623  0.34331146     0.03050
C642        C  0.54641693  0.05297805  0.29983885    -0.11030
H643        H  0.55143029  0.15645829  0.21803192     0.08650
H644        H  0.56123118  0.14399843  0.37264832     0.06180
H645        H  0.53743024  0.01365719  0.30218310     0.06030
C646        C  0.95180772  0.39120103  0.37636129     0.03060
C647        C  0.95693509  0.34111976  0.37857646    -0.13090
C648        C  0.96083577  0.31943615  0.33551970     0.00560
C649        C  0.95295411  0.34472113  0.29117307    -0.11610
C650        C  0.95274350  0.39530400  0.28634343     0.03050
C651        C  0.95147360  0.41928557  0.32952490    -0.11030
H652        H  0.96440855  0.32062058  0.41268875     0.08650
H653        H  0.95527289  0.32574097  0.25868959     0.06180
H654        H  0.95343224  0.45892209  0.32658817     0.06030
O655        O  0.58151412  0.37960864  0.99261855    -0.86560
O656        O  0.94223032  0.45944084  0.22357210    -0.86720
O657        O  0.60865455  0.41218208  0.14366858    -0.88390
O658        O  0.97406270  0.32715859  0.12329946    -0.87150
O659        O  0.91340245  0.34718875  0.07457594    -0.86740
O660        O  0.64153678  0.49257351  0.12455336    -0.88110
O661        O  0.99027446  0.39889140  0.20489103    -0.86590
O662        O  0.56086173  0.34372545  0.07222051    -0.86170
Zr663      Zr  0.52457236  0.40485176  0.11771793     2.84310
O664        O  0.94554975  0.43145441  0.11938699    -1.08150
O665        O  0.57896482  0.46083654  0.06387927    -1.08880
C666        C  0.57784048  0.34276515  0.02709476     1.06550
C667        C  0.96252290  0.42016132  0.23521308     1.06490
C668        C  0.64415113  0.44723998  0.14086846     1.09480
C669        C  0.93486750  0.31627807  0.10277678     1.07260
H670        H  0.53864307  0.47939953  0.17499297     0.32810
O671        O  0.52643548  0.48270159  0.14314567    -1.29100
H672        H  0.99414357  0.37707722  0.02684388     0.32490
O673        O  0.99718453  0.40859529  0.03884646    -1.30780
O674        O  0.92269948  0.09420376  0.13735773    -0.86550
O675        O  0.55895621  0.01210260  0.40670430    -0.88050
O676        O  0.57306939  0.06687358  0.17170487    -0.86630
O677        O  0.84145617  0.42768061  0.09109706    -0.86680
O678        O  0.92645206  0.41016287  0.45660729    -0.86390
O679        O  0.65765645  0.04725345  0.03959518    -0.86190
O680        O  0.52363585  0.14504802  0.00425220    -0.86560
O681        O  0.89162263  0.06056699  0.48209281    -0.86030
O682        O  0.58354963  0.12738157  0.05486977    -0.87090
O683        O  0.85739073  0.48080558  0.00272140    -0.86250
O684        O  0.99361063  0.04585174  0.20641543    -0.86650
O685        O  0.64062615  0.49783605  0.48011476    -0.86370
O686        O  0.00683593  0.42905735  0.42393146    -0.86020
O687        O  0.86048474  0.47488765  0.15175250    -0.86430
O688        O  0.94144652  0.12834706  0.05695043    -0.86720
O689        O  0.00899413  0.07194936  0.42302843    -0.88060
Zr690      Zr  0.94756201  0.00995729  0.14523362     2.83100
Zr691      Zr  0.55360813  0.46271233  0.48539738     2.83500
Zr692      Zr  0.57973784  0.03966362  0.08920380     2.84090
Zr693      Zr  0.91891313  0.43477073  0.04030847     2.83360
Zr694      Zr  0.97475504  0.06689794  0.01030748     2.84220
O695        O  0.97437877  0.48888726  0.98594897    -1.08630
O696        O  0.00114050  0.06454514  0.08949187    -1.08130
C697        C  0.92581967  0.13033070  0.10220803     1.06520
C698        C  0.53793578  0.05060327  0.39389649     1.09140
C699        C  0.53868785  0.06307827  0.20784593     1.06700
C700        C  0.83022873  0.44687533  0.13049477     1.07060
C701        C  0.96164780  0.41313573  0.42132979     1.06640
C702        C  0.66989468  0.02706870  0.00111287     1.06190
C703        C  0.56195125  0.15712588  0.02551858     1.06620
C704        C  0.85556213  0.02603646  0.48543389     1.06130
H705        H  0.57675801  0.06455989  0.48706699     0.32800
O706        O  0.55434948  0.04177712  0.00970614    -1.29730
H707        H  0.88902347  0.02498400  0.06996305     0.32830
O708        O  0.92092498  0.01306916  0.06700896    -1.31120
C709        C  0.55942268  0.24319925  0.29732448    -0.12330
C710        C  0.53160176  0.19803577  0.30054161     0.04670
C711        C  0.98149624  0.19213129  0.31933452    -0.07620
C712        C  0.96038874  0.23170059  0.33597938    -0.08370
C713        C  0.98780304  0.27715375  0.33210045    -0.02920
C714        C  0.53784888  0.28363358  0.31209495     0.03900
N715        N  0.56631858  0.33098066  0.30439697     0.66410
H716        H  0.59809508  0.24661935  0.28409622     0.15300
H717        H  0.92163927  0.22781714  0.34905010     0.15020
N718        N  0.95197232  0.14595991  0.32208662     0.74110
O719        O  0.60100831  0.34020413  0.27031386    -0.39340
O720        O  0.55892837  0.36281671  0.33293987    -0.39280
O721        O  0.92420702  0.12966430  0.36063204    -0.39990
O722        O  0.94853507  0.12486510  0.28401699    -0.40050
C723        C  0.77203446  0.00860201  0.26791891    -0.12330
C724        C  0.74084051  0.46424846  0.27619701     0.04670
C725        C  0.71602992  0.44814735  0.32275412    -0.07620
C726        C  0.72327686  0.47710464  0.36017296    -0.08370
C727        C  0.75483078  0.02123528  0.35212739    -0.02920
C728        C  0.77990442  0.03729006  0.30557082     0.03900
N729        N  0.81281256  0.08193625  0.29578455     0.66410
H730        H  0.79000554  0.02116810  0.23138994     0.15300
H731        H  0.70563016  0.46406556  0.39672966     0.15020
N732        N  0.68519011  0.40229888  0.33317458     0.74110
O733        O  0.84573911  0.08759192  0.25996789    -0.39340
O734        O  0.80720807  0.11721732  0.32050607    -0.39280
O735        O  0.69518450  0.36588327  0.31163429    -0.39990
O736        O  0.65130693  0.39630966  0.36810756    -0.40050
C737        C  0.79763988  0.24751874  0.03356447    -0.12330
C738        C  0.78942768  0.22414539  0.08226319     0.04670
C739        C  0.74172008  0.20921066  0.10453176    -0.07620
C740        C  0.70282960  0.21899373  0.07715517    -0.08370
C741        C  0.71088723  0.24301304  0.02868486    -0.02920
C742        C  0.75864785  0.25730807  0.00607429     0.03900
N743        N  0.76821041  0.28130270  0.45624840     0.66410
H744        H  0.83499779  0.25826228  0.01715067     0.15300
H745        H  0.66554722  0.20865231  0.09398584     0.15020
N746        N  0.73201089  0.18524319  0.15432344     0.74110
O747        O  0.80901822  0.30599877  0.44196555    -0.39340
O748        O  0.73748065  0.27560449  0.42536285    -0.39280
O749        O  0.76079806  0.19389488  0.18629343    -0.39990
O750        O  0.69257889  0.15776380  0.16745648    -0.40050
C751        C  0.59630081  0.29649954  0.01476610     0.03060
C752        C  0.64720527  0.29585312  0.50807310    -0.13090
C753        C  0.66713611  0.25157445  0.50443953     0.00560
C754        C  0.63728483  0.20950370  0.49961077    -0.11610
C755        C  0.58703724  0.20726867  0.01212092     0.03050
C756        C  0.56565179  0.25131045  0.01880595    -0.11030
H757        H  0.67110269  0.32825985  0.51261077     0.08650
H758        H  0.65418042  0.17570022  0.49666297     0.06180
H759        H  0.52659091  0.25019063  0.02922508     0.06030
C760        C  0.90478185  0.17591202  0.61254711     0.03060
C761        C  0.93350781  0.22178153  0.61249084    -0.13090
C762        C  0.90987212  0.26556969  0.61320767     0.00560
C763        C  0.85894701  0.26220308  0.61557551    -0.11610
C764        C  0.83248573  0.21894633  0.60843432     0.03050
C765        C  0.85426038  0.17539002  0.60989416    -0.11030
H766        H  0.97321498  0.22362192  0.60896672     0.08650
H767        H  0.84023537  0.29527515  0.61456871     0.06180
H768        H  0.83297057  0.14221925  0.60286295     0.06030
C769        C  0.69015314  0.43635603  0.66195594     0.03060
C770        C  0.73582360  0.43711757  0.63276542    -0.13090
C771        C  0.77993825  0.43477664  0.65591489     0.00560
C772        C  0.77714294  0.42940444  0.70688201    -0.11610
C773        C  0.73446135  0.43775570  0.73392434     0.03050
C774        C  0.69033912  0.43776460  0.71254255    -0.11030
H775        H  0.73725865  0.44252360  0.59305598     0.08650
H776        H  0.81064214  0.42870333  0.72504504     0.06180
H777        H  0.65737016  0.44515045  0.73401622     0.06030
C778        C  0.80910059  0.03825738  0.96628499     0.03060
C779        C  0.80787841  0.04260267  0.91536684    -0.13090
C780        C  0.76318792  0.04572961  0.89534670     0.00560
C781        C  0.72137750  0.05244341  0.92486594    -0.11610
C782        C  0.71966082  0.04106246  0.97545762     0.03050
C783        C  0.76410136  0.03510977  0.49698496    -0.11030
H784        H  0.84026840  0.03682598  0.89204835     0.08650
H785        H  0.68729287  0.05543452  0.90803557     0.06180
H786        H  0.76341781  0.02553596  0.53632400     0.06030
C787        C  0.55068996  0.08262716  0.75344729     0.03060
C788        C  0.55568964  0.13361434  0.75187371    -0.13090
C789        C  0.55641165  0.15457445  0.79543047     0.00560
C790        C  0.56032510  0.12617650  0.83945275    -0.11610
C791        C  0.55059744  0.07558623  0.84331146     0.03050
C792        C  0.54641694  0.05297805  0.79983885    -0.11030
H793        H  0.55143032  0.15645829  0.71803191     0.08650
H794        H  0.56123119  0.14399843  0.87264832     0.06180
H795        H  0.53743024  0.01365719  0.80218310     0.06030
C796        C  0.95180772  0.39120103  0.87636129     0.03060
C797        C  0.95693509  0.34111975  0.87857647    -0.13090
C798        C  0.96083578  0.31943615  0.83551971     0.00560
C799        C  0.95295412  0.34472113  0.79117307    -0.11610
C800        C  0.95274351  0.39530400  0.78634343     0.03050
C801        C  0.95147361  0.41928557  0.82952490    -0.11030
H802        H  0.96440854  0.32062058  0.91268876     0.08650
H803        H  0.95527291  0.32574097  0.75868959     0.06180
H804        H  0.95343224  0.45892209  0.82658817     0.06030
O805        O  0.58151411  0.37960865  0.49261855    -0.86560
O806        O  0.94223033  0.45944084  0.72357210    -0.86720
O807        O  0.60865455  0.41218208  0.64366858    -0.88390
O808        O  0.97406270  0.32715859  0.62329946    -0.87150
O809        O  0.91340245  0.34718875  0.57457594    -0.86740
O810        O  0.64153678  0.49257352  0.62455336    -0.88110
O811        O  0.99027447  0.39889140  0.70489102    -0.86590
O812        O  0.56086173  0.34372545  0.57222050    -0.86170
Zr813      Zr  0.52457236  0.40485176  0.61771793     2.84310
O814        O  0.94554975  0.43145441  0.61938699    -1.08150
O815        O  0.57896482  0.46083654  0.56387927    -1.08880
C816        C  0.57784048  0.34276515  0.52709475     1.06550
C817        C  0.96252290  0.42016132  0.73521307     1.06490
C818        C  0.64415113  0.44723998  0.64086845     1.09480
C819        C  0.93486750  0.31627807  0.60277678     1.07260
H820        H  0.53864308  0.47939953  0.67499297     0.32810
O821        O  0.52643548  0.48270159  0.64314567    -1.29100
H822        H  0.99414357  0.37707722  0.52684387     0.32490
O823        O  0.99718453  0.40859529  0.53884646    -1.30780
O824        O  0.92269948  0.09420376  0.63735773    -0.86550
O825        O  0.55895622  0.01210261  0.90670430    -0.88050
O826        O  0.57306940  0.06687358  0.67170487    -0.86630
O827        O  0.84145617  0.42768061  0.59109706    -0.86680
O828        O  0.92645206  0.41016287  0.95660729    -0.86390
O829        O  0.65765645  0.04725346  0.53959517    -0.86190
O830        O  0.52363585  0.14504802  0.50425220    -0.86560
O831        O  0.89162263  0.06056699  0.98209280    -0.86030
O832        O  0.58354964  0.12738157  0.55486976    -0.87090
O833        O  0.85739073  0.48080558  0.50272141    -0.86250
O834        O  0.99361063  0.04585175  0.70641543    -0.86650
O835        O  0.64062615  0.49783605  0.98011477    -0.86370
O836        O  0.00683593  0.42905735  0.92393147    -0.86020
O837        O  0.86048474  0.47488766  0.65175249    -0.86430
O838        O  0.94144651  0.12834706  0.55695043    -0.86720
O839        O  0.00899413  0.07194937  0.92302843    -0.88060
Zr840      Zr  0.94756202  0.00995729  0.64523362     2.83100
Zr841      Zr  0.55360813  0.46271232  0.98539738     2.83500
Zr842      Zr  0.57973784  0.03966362  0.58920379     2.84090
Zr843      Zr  0.91891313  0.43477073  0.54030847     2.83360
Zr844      Zr  0.97475504  0.06689794  0.51030748     2.84220
O845        O  0.97437877  0.48888726  0.48594897    -1.08630
O846        O  0.00114051  0.06454514  0.58949187    -1.08130
C847        C  0.92581967  0.13033070  0.60220803     1.06520
C848        C  0.53793579  0.05060327  0.89389649     1.09140
C849        C  0.53868786  0.06307827  0.70784593     1.06700
C850        C  0.83022874  0.44687533  0.63049478     1.07060
C851        C  0.96164780  0.41313573  0.92132979     1.06640
C852        C  0.66989468  0.02706870  0.50111286     1.06190
C853        C  0.56195125  0.15712588  0.52551858     1.06620
C854        C  0.85556214  0.02603646  0.98543389     1.06130
H855        H  0.57675801  0.06455989  0.98706699     0.32800
O856        O  0.55434948  0.04177712  0.50970614    -1.29730
H857        H  0.88902347  0.02498400  0.56996306     0.32830
O858        O  0.92092498  0.01306916  0.56700896    -1.31120
C859        C  0.55942270  0.24319925  0.79732449    -0.12330
C860        C  0.53160178  0.19803577  0.80054160     0.04670
C861        C  0.98149626  0.19213131  0.81933448    -0.07620
C862        C  0.96038874  0.23170059  0.83597934    -0.08370
C863        C  0.98780304  0.27715375  0.83210046    -0.02920
C864        C  0.53784889  0.28363358  0.81209497     0.03900
N865        N  0.56631859  0.33098066  0.80439699     0.66410
H866        H  0.59809510  0.24661935  0.78409624     0.15300
H867        H  0.92163927  0.22781713  0.84905004     0.15020
N868        N  0.95197234  0.14595993  0.82208652     0.74110
O869        O  0.60100833  0.34020414  0.77031388    -0.39340
O870        O  0.55892838  0.36281671  0.83293990    -0.39280
O871        O  0.92420715  0.12966421  0.86063198    -0.39990
O872        O  0.94853500  0.12486524  0.78401682    -0.40050
C873        C  0.77203444  0.00860207  0.76791891    -0.12330
C874        C  0.74084050  0.46424850  0.77619701     0.04670
C875        C  0.71602992  0.44814739  0.82275412    -0.07620
C876        C  0.72327686  0.47710468  0.86017295    -0.08370
C877        C  0.75483077  0.02123534  0.85212739    -0.02920
C878        C  0.77990439  0.03729013  0.80557082     0.03900
N879        N  0.81281252  0.08193633  0.79578454     0.66410
H880        H  0.79000551  0.02116817  0.73138994     0.15300
H881        H  0.70563017  0.46406559  0.89672966     0.15020
N882        N  0.68519012  0.40229891  0.83317457     0.74110
O883        O  0.84573903  0.08759202  0.75996785    -0.39340
O884        O  0.80720805  0.11721738  0.82050609    -0.39280
O885        O  0.69518451  0.36588331  0.81163429    -0.39990
O886        O  0.65130694  0.39630969  0.86810756    -0.40050
C887        C  0.79763988  0.24751874  0.53356448    -0.12330
C888        C  0.78942767  0.22414540  0.58226319     0.04670
C889        C  0.74172008  0.20921067  0.60453177    -0.07620
C890        C  0.70282959  0.21899374  0.57715518    -0.08370
C891        C  0.71088723  0.24301305  0.52868486    -0.02920
C892        C  0.75864785  0.25730808  0.50607430     0.03900
N893        N  0.76821041  0.28130270  0.95624840     0.66410
H894        H  0.83499779  0.25826228  0.51715068     0.15300
H895        H  0.66554721  0.20865232  0.59398584     0.15020
N896        N  0.73201089  0.18524320  0.65432344     0.74110
O897        O  0.80901822  0.30599876  0.94196554    -0.39340
O898        O  0.73748065  0.27560449  0.92536285    -0.39280
O899        O  0.76079806  0.19389489  0.68629344    -0.39990
O900        O  0.69257888  0.15776383  0.66745649    -0.40050
C901        C  0.59630081  0.79649955  0.51476609     0.03060
C902        C  0.64720527  0.79585312  0.00807309    -0.13090
C903        C  0.66713610  0.75157446  0.00443951     0.00560
C904        C  0.63728483  0.70950371  0.99961075    -0.11610
C905        C  0.58703724  0.70726867  0.51212091     0.03050
C906        C  0.56565179  0.75131045  0.51880595    -0.11030
H907        H  0.67110269  0.82825985  0.01261075     0.08650
H908        H  0.65418041  0.67570023  0.99666295     0.06180
H909        H  0.52659091  0.75019063  0.52922509     0.06030
C910        C  0.90478184  0.67591201  0.11254710     0.03060
C911        C  0.93350781  0.72178153  0.11249083    -0.13090
C912        C  0.90987212  0.76556969  0.11320766     0.00560
C913        C  0.85894700  0.76220308  0.11557549    -0.11610
C914        C  0.83248573  0.71894633  0.10843430     0.03050
C915        C  0.85426037  0.67539002  0.10989414    -0.11030
H916        H  0.97321497  0.72362192  0.10896672     0.08650
H917        H  0.84023537  0.79527514  0.11456869     0.06180
H918        H  0.83297057  0.64221925  0.10286293     0.06030
C919        C  0.69015313  0.93635602  0.16195595     0.03060
C920        C  0.73582359  0.93711757  0.13276543    -0.13090
C921        C  0.77993824  0.93477663  0.15591489     0.00560
C922        C  0.77714293  0.92940441  0.20688201    -0.11610
C923        C  0.73446135  0.93775567  0.23392435     0.03050
C924        C  0.69033911  0.93776458  0.21254256    -0.11030
H925        H  0.73725864  0.94252360  0.09305599     0.08650
H926        H  0.81064214  0.92870330  0.22504504     0.06180
H927        H  0.65737016  0.94515043  0.23401623     0.06030
C928        C  0.80910059  0.53825737  0.46628498     0.03060
C929        C  0.80787841  0.54260263  0.41536683    -0.13090
C930        C  0.76318793  0.54572955  0.39534669     0.00560
C931        C  0.72137751  0.55244336  0.42486592    -0.11610
C932        C  0.71966083  0.54106245  0.47545760     0.03050
C933        C  0.76410136  0.53510976  0.99698496    -0.11030
H934        H  0.84026841  0.53682593  0.39204835     0.08650
H935        H  0.68729288  0.55543446  0.40803554     0.06180
H936        H  0.76341781  0.52553594  0.03632399     0.06030
C937        C  0.55068997  0.58262716  0.25344728     0.03060
C938        C  0.55568964  0.63361434  0.25187371    -0.13090
C939        C  0.55641163  0.65457445  0.29543047     0.00560
C940        C  0.56032508  0.62617650  0.33945275    -0.11610
C941        C  0.55059744  0.57558622  0.34331146     0.03050
C942        C  0.54641695  0.55297805  0.29983884    -0.11030
H943        H  0.55143032  0.65645829  0.21803191     0.08650
H944        H  0.56123116  0.64399843  0.37264832     0.06180
H945        H  0.53743026  0.51365719  0.30218309     0.06030
C946        C  0.95180772  0.89120103  0.37636130     0.03060
C947        C  0.95693510  0.84111975  0.37857647    -0.13090
C948        C  0.96083579  0.81943615  0.33551971     0.00560
C949        C  0.95295413  0.84472112  0.29117307    -0.11610
C950        C  0.95274350  0.89530400  0.28634343     0.03050
C951        C  0.95147360  0.91928556  0.32952490    -0.11030
H952        H  0.96440855  0.82062058  0.41268876     0.08650
H953        H  0.95527292  0.82574096  0.25868959     0.06180
H954        H  0.95343223  0.95892209  0.32658817     0.06030
O955        O  0.58151412  0.87960865  0.99261856    -0.86560
O956        O  0.94223032  0.95944084  0.22357210    -0.86720
O957        O  0.60865454  0.91218207  0.14366859    -0.88390
O958        O  0.97406269  0.82715859  0.12329946    -0.87150
O959        O  0.91340244  0.84718875  0.07457593    -0.86740
O960        O  0.64153677  0.99257351  0.12455337    -0.88110
O961        O  0.99027446  0.89889139  0.20489102    -0.86590
O962        O  0.56086172  0.84372544  0.07222051    -0.86170
Zr963      Zr  0.52457235  0.90485176  0.11771793     2.84310
O964        O  0.94554975  0.93145441  0.11938699    -1.08150
O965        O  0.57896482  0.96083654  0.06387928    -1.08880
C966        C  0.57784047  0.84276515  0.02709476     1.06550
C967        C  0.96252290  0.92016131  0.23521308     1.06490
C968        C  0.64415112  0.94723998  0.14086847     1.09480
C969        C  0.93486749  0.81627806  0.10277678     1.07260
H970        H  0.53864306  0.97939953  0.17499298     0.32810
O971        O  0.52643547  0.98270159  0.14314568    -1.29100
H972        H  0.99414356  0.87707722  0.02684387     0.32490
O973        O  0.99718452  0.90859530  0.03884646    -1.30780
O974        O  0.92269947  0.59420376  0.13735773    -0.86550
O975        O  0.55895621  0.51210260  0.40670430    -0.88050
O976        O  0.57306942  0.56687358  0.17170486    -0.86630
O977        O  0.84145616  0.92768061  0.09109706    -0.86680
O978        O  0.92645205  0.91016287  0.45660729    -0.86390
O979        O  0.65765646  0.54725345  0.03959516    -0.86190
O980        O  0.52363586  0.64504802  0.00425220    -0.86560
O981        O  0.89162264  0.56056698  0.48209280    -0.86030
O982        O  0.58354964  0.62738157  0.05486976    -0.87090
O983        O  0.85739073  0.98080559  0.00272140    -0.86250
O984        O  0.99361063  0.54585175  0.20641542    -0.86650
O985        O  0.64062615  0.99783605  0.48011477    -0.86370
O986        O  0.00683592  0.92905735  0.42393147    -0.86020
O987        O  0.86048474  0.97488765  0.15175250    -0.86430
O988        O  0.94144651  0.62834706  0.05695042    -0.86720
O989        O  0.00899414  0.57194937  0.42302842    -0.88060
Zr990      Zr  0.94756201  0.50995730  0.14523361     2.83100
Zr991      Zr  0.55360813  0.96271233  0.48539739     2.83500
Zr992      Zr  0.57973785  0.53966362  0.08920379     2.84090
Zr993      Zr  0.91891313  0.93477073  0.04030847     2.83360
Zr994      Zr  0.97475504  0.56689794  0.01030748     2.84220
O995        O  0.97437876  0.98888726  0.98594897    -1.08630
O996        O  0.00114050  0.56454514  0.08949187    -1.08130
C997        C  0.92581967  0.63033070  0.10220802     1.06520
C998        C  0.53793578  0.55060327  0.39389648     1.09140
C999        C  0.53868787  0.56307827  0.20784592     1.06700
C1000       C  0.83022873  0.94687533  0.13049477     1.07060
C1001       C  0.96164780  0.91313573  0.42132980     1.06640
C1002       C  0.66989469  0.52706869  0.00111286     1.06190
C1003       C  0.56195125  0.65712588  0.02551857     1.06620
C1004       C  0.85556214  0.52603646  0.48543389     1.06130
H1005       H  0.57675801  0.56455989  0.48706698     0.32800
O1006       O  0.55434948  0.54177712  0.00970613    -1.29730
H1007       H  0.88902347  0.52498400  0.06996305     0.32830
O1008       O  0.92092499  0.51306916  0.06700896    -1.31120
C1009       C  0.55942267  0.74319925  0.29732446    -0.12330
C1010       C  0.53160175  0.69803576  0.30054160     0.04670
C1011       C  0.98149628  0.69213131  0.31933450    -0.07620
C1012       C  0.96038876  0.73170059  0.33597936    -0.08370
C1013       C  0.98780306  0.77715375  0.33210046    -0.02920
C1014       C  0.53784888  0.78363357  0.31209494     0.03900
N1015       N  0.56631858  0.83098066  0.30439695     0.66410
H1016       H  0.59809507  0.74661934  0.28409618     0.15300
H1017       H  0.92163929  0.72781712  0.34905007     0.15020
N1018       N  0.95197237  0.64595992  0.32208654     0.74110
O1019       O  0.60100832  0.84020412  0.27031385    -0.39340
O1020       O  0.55892838  0.86281670  0.33293986    -0.39280
O1021       O  0.92420720  0.62966419  0.36063202    -0.39990
O1022       O  0.94853500  0.62486524  0.28401685    -0.40050
C1023       C  0.77203446  0.50860199  0.26791891    -0.12330
C1024       C  0.74084051  0.96424847  0.27619701     0.04670
C1025       C  0.71602992  0.94814736  0.32275412    -0.07620
C1026       C  0.72327686  0.97710465  0.36017296    -0.08370
C1027       C  0.75483079  0.52123527  0.35212739    -0.02920
C1028       C  0.77990442  0.53729005  0.30557081     0.03900
N1029       N  0.81281257  0.58193624  0.29578454     0.66410
H1030       H  0.79000554  0.52116808  0.23138994     0.15300
H1031       H  0.70563016  0.96406557  0.39672967     0.15020
N1032       N  0.68519012  0.90229889  0.33317458     0.74110
O1033       O  0.84573910  0.58759191  0.25996787    -0.39340
O1034       O  0.80720809  0.61721730  0.32050607    -0.39280
O1035       O  0.69518450  0.86588328  0.31163429    -0.39990
O1036       O  0.65130693  0.89630967  0.36810756    -0.40050
C1037       C  0.79763988  0.74751874  0.03356446    -0.12330
C1038       C  0.78942767  0.72414540  0.08226317     0.04670
C1039       C  0.74172007  0.70921067  0.10453174    -0.07620
C1040       C  0.70282959  0.71899374  0.07715516    -0.08370
C1041       C  0.71088723  0.74301305  0.02868484    -0.02920
C1042       C  0.75864784  0.75730808  0.00607428     0.03900
N1043       N  0.76821041  0.78130268  0.45624836     0.66410
H1044       H  0.83499779  0.75826228  0.01715066     0.15300
H1045       H  0.66554721  0.70865232  0.09398582     0.15020
N1046       N  0.73201088  0.68524320  0.15432342     0.74110
O1047       O  0.80901822  0.80599873  0.44196550    -0.39340
O1048       O  0.73748064  0.77560447  0.42536282    -0.39280
O1049       O  0.76079805  0.69389489  0.18629341    -0.39990
O1050       O  0.69257888  0.65776382  0.16745646    -0.40050
C1051       C  0.59630080  0.79649954  0.01476609     0.03060
C1052       C  0.64720527  0.79585312  0.50807309    -0.13090
C1053       C  0.66713610  0.75157446  0.50443950     0.00560
C1054       C  0.63728482  0.70950371  0.49961075    -0.11610
C1055       C  0.58703724  0.70726867  0.01212091     0.03050
C1056       C  0.56565179  0.75131045  0.01880595    -0.11030
H1057       H  0.67110269  0.82825985  0.51261075     0.08650
H1058       H  0.65418041  0.67570023  0.49666294     0.06180
H1059       H  0.52659091  0.75019063  0.02922509     0.06030
C1060       C  0.90478185  0.67591201  0.61254710     0.03060
C1061       C  0.93350781  0.72178153  0.61249083    -0.13090
C1062       C  0.90987212  0.76556969  0.61320766     0.00560
C1063       C  0.85894700  0.76220308  0.61557548    -0.11610
C1064       C  0.83248574  0.71894633  0.60843429     0.03050
C1065       C  0.85426038  0.67539002  0.60989413    -0.11030
H1066       H  0.97321498  0.72362192  0.60896673     0.08650
H1067       H  0.84023537  0.79527514  0.61456868     0.06180
H1068       H  0.83297057  0.64221925  0.60286292     0.06030
C1069       C  0.69015313  0.93635603  0.66195595     0.03060
C1070       C  0.73582359  0.93711757  0.63276544    -0.13090
C1071       C  0.77993824  0.93477665  0.65591491     0.00560
C1072       C  0.77714293  0.92940446  0.70688202    -0.11610
C1073       C  0.73446134  0.93775572  0.73392435     0.03050
C1074       C  0.69033911  0.93776461  0.71254256    -0.11030
H1075       H  0.73725864  0.94252358  0.59305600     0.08650
H1076       H  0.81064214  0.92870337  0.72504505     0.06180
H1077       H  0.65737015  0.94515046  0.73401623     0.06030
C1078       C  0.80910059  0.53825738  0.96628498     0.03060
C1079       C  0.80787841  0.54260265  0.91536683    -0.13090
C1080       C  0.76318793  0.54572958  0.89534669     0.00560
C1081       C  0.72137750  0.55244338  0.92486592    -0.11610
C1082       C  0.71966083  0.54106245  0.97545761     0.03050
C1083       C  0.76410136  0.53510977  0.49698496    -0.11030
H1084       H  0.84026841  0.53682596  0.89204835     0.08650
H1085       H  0.68729288  0.55543449  0.90803555     0.06180
H1086       H  0.76341781  0.52553596  0.53632399     0.06030
C1087       C  0.55068997  0.58262716  0.75344728     0.03060
C1088       C  0.55568964  0.63361434  0.75187371    -0.13090
C1089       C  0.55641164  0.65457445  0.79543047     0.00560
C1090       C  0.56032509  0.62617650  0.83945275    -0.11610
C1091       C  0.55059744  0.57558622  0.84331146     0.03050
C1092       C  0.54641695  0.55297805  0.79983884    -0.11030
H1093       H  0.55143032  0.65645829  0.71803191     0.08650
H1094       H  0.56123117  0.64399843  0.87264832     0.06180
H1095       H  0.53743026  0.51365719  0.80218309     0.06030
C1096       C  0.95180772  0.89120103  0.87636129     0.03060
C1097       C  0.95693509  0.84111975  0.87857647    -0.13090
C1098       C  0.96083578  0.81943615  0.83551971     0.00560
C1099       C  0.95295412  0.84472113  0.79117307    -0.11610
C1100       C  0.95274350  0.89530400  0.78634343     0.03050
C1101       C  0.95147360  0.91928557  0.82952490    -0.11030
H1102       H  0.96440855  0.82062058  0.91268876     0.08650
H1103       H  0.95527290  0.82574097  0.75868959     0.06180
H1104       H  0.95343224  0.95892209  0.82658817     0.06030
O1105       O  0.58151412  0.87960865  0.49261856    -0.86560
O1106       O  0.94223032  0.95944084  0.72357210    -0.86720
O1107       O  0.60865455  0.91218208  0.64366858    -0.88390
O1108       O  0.97406269  0.82715859  0.62329946    -0.87150
O1109       O  0.91340244  0.84718875  0.57457594    -0.86740
O1110       O  0.64153677  0.99257352  0.62455337    -0.88110
O1111       O  0.99027446  0.89889140  0.70489103    -0.86590
O1112       O  0.56086172  0.84372545  0.57222051    -0.86170
Zr1113     Zr  0.52457236  0.90485176  0.61771793     2.84310
O1114       O  0.94554975  0.93145441  0.61938699    -1.08150
O1115       O  0.57896482  0.96083654  0.56387927    -1.08880
C1116       C  0.57784048  0.84276515  0.52709476     1.06550
C1117       C  0.96252290  0.92016131  0.73521308     1.06490
C1118       C  0.64415113  0.94723998  0.64086846     1.09480
C1119       C  0.93486749  0.81627806  0.60277678     1.07260
H1120       H  0.53864307  0.97939953  0.67499297     0.32810
O1121       O  0.52643547  0.98270159  0.64314567    -1.29100
H1122       H  0.99414356  0.87707722  0.52684388     0.32490
O1123       O  0.99718452  0.90859529  0.53884646    -1.30780
O1124       O  0.92269948  0.59420376  0.63735773    -0.86550
O1125       O  0.55895622  0.51210260  0.90670430    -0.88050
O1126       O  0.57306941  0.56687358  0.67170486    -0.86630
O1127       O  0.84145616  0.92768061  0.59109707    -0.86680
O1128       O  0.92645205  0.91016287  0.95660729    -0.86390
O1129       O  0.65765646  0.54725346  0.53959516    -0.86190
O1130       O  0.52363585  0.64504802  0.50425220    -0.86560
O1131       O  0.89162264  0.56056698  0.98209280    -0.86030
O1132       O  0.58354964  0.62738157  0.55486975    -0.87090
O1133       O  0.85739073  0.98080559  0.50272141    -0.86250
O1134       O  0.99361064  0.54585175  0.70641542    -0.86650
O1135       O  0.64062615  0.99783606  0.98011477    -0.86370
O1136       O  0.00683593  0.92905735  0.92393147    -0.86020
O1137       O  0.86048474  0.97488766  0.65175250    -0.86430
O1138       O  0.94144652  0.62834706  0.55695042    -0.86720
O1139       O  0.00899413  0.57194936  0.92302842    -0.88060
Zr1140     Zr  0.94756202  0.50995729  0.64523361     2.83100
Zr1141     Zr  0.55360813  0.96271233  0.98539739     2.83500
Zr1142     Zr  0.57973785  0.53966362  0.58920378     2.84090
Zr1143     Zr  0.91891312  0.93477073  0.54030847     2.83360
Zr1144     Zr  0.97475504  0.56689794  0.51030748     2.84220
O1145       O  0.97437876  0.98888726  0.48594897    -1.08630
O1146       O  0.00114051  0.56454514  0.58949186    -1.08130
C1147       C  0.92581968  0.63033070  0.60220802     1.06520
C1148       C  0.53793579  0.55060326  0.89389648     1.09140
C1149       C  0.53868787  0.56307827  0.70784592     1.06700
C1150       C  0.83022873  0.94687533  0.63049479     1.07060
C1151       C  0.96164780  0.91313573  0.92132979     1.06640
C1152       C  0.66989469  0.52706869  0.50111285     1.06190
C1153       C  0.56195125  0.65712589  0.52551857     1.06620
C1154       C  0.85556214  0.52603646  0.98543388     1.06130
H1155       H  0.57675801  0.56455989  0.98706698     0.32800
O1156       O  0.55434948  0.54177712  0.50970613    -1.29730
H1157       H  0.88902348  0.52498400  0.56996305     0.32830
O1158       O  0.92092499  0.51306916  0.56700896    -1.31120
C1159       C  0.55942268  0.74319925  0.79732448    -0.12330
C1160       C  0.53160176  0.69803576  0.80054160     0.04670
C1161       C  0.98149625  0.69213130  0.81933450    -0.07620
C1162       C  0.96038874  0.73170059  0.83597936    -0.08370
C1163       C  0.98780304  0.77715375  0.83210045    -0.02920
C1164       C  0.53784889  0.78363357  0.81209496     0.03900
N1165       N  0.56631859  0.83098065  0.80439698     0.66410
H1166       H  0.59809508  0.74661934  0.78409622     0.15300
H1167       H  0.92163927  0.72781713  0.84905007     0.15020
N1168       N  0.95197233  0.64595992  0.82208657     0.74110
O1169       O  0.60100834  0.84020412  0.77031389    -0.39340
O1170       O  0.55892838  0.86281670  0.83293989    -0.39280
O1171       O  0.92420705  0.62966428  0.86063199    -0.39990
O1172       O  0.94853506  0.62486514  0.78401692    -0.40050
C1173       C  0.77203446  0.50860204  0.76791890    -0.12330
C1174       C  0.74084049  0.96424853  0.77619701     0.04670
C1175       C  0.71602991  0.94814742  0.82275412    -0.07620
C1176       C  0.72327685  0.97710471  0.86017296    -0.08370
C1177       C  0.75483078  0.52123531  0.85212738    -0.02920
C1178       C  0.77990441  0.53729009  0.80557081     0.03900
N1179       N  0.81281255  0.58193629  0.79578454     0.66410
H1180       H  0.79000553  0.52116813  0.73138993     0.15300
H1181       H  0.70563016  0.96406562  0.89672967     0.15020
N1182       N  0.68519011  0.90229894  0.83317458     0.74110
O1183       O  0.84573909  0.58759196  0.75996787    -0.39340
O1184       O  0.80720807  0.61721735  0.82050607    -0.39280
O1185       O  0.69518451  0.86588333  0.81163431    -0.39990
O1186       O  0.65130692  0.89630972  0.86810756    -0.40050
C1187       C  0.79763988  0.74751872  0.53356444    -0.12330
C1188       C  0.78942767  0.72414539  0.58226316     0.04670
C1189       C  0.74172008  0.70921067  0.60453174    -0.07620
C1190       C  0.70282959  0.71899374  0.57715515    -0.08370
C1191       C  0.71088723  0.74301305  0.52868483    -0.02920
C1192       C  0.75864785  0.75730806  0.50607426     0.03900
N1193       N  0.76821041  0.78130271  0.95624838     0.66410
H1194       H  0.83499779  0.75826225  0.51715063     0.15300
H1195       H  0.66554721  0.70865233  0.59398581     0.15020
N1196       N  0.73201089  0.68524320  0.65432341     0.74110
O1197       O  0.80901821  0.80599878  0.94196553    -0.39340
O1198       O  0.73748065  0.77560450  0.92536283    -0.39280
O1199       O  0.76079807  0.69389488  0.68629340    -0.39990
O1200       O  0.69257888  0.65776384  0.66745646    -0.40050
loop_ 
_geom_bond_atom_site_label_1 
_geom_bond_atom_site_label_2 
_geom_bond_distance 
_geom_bond_site_symmetry_2 
_ccdc_geom_bond_type 
C1            C6   1.426       .  A
C1          C152   1.396       .  A
C1          C216   1.479       .  S
C2            C3   1.394       .  A
C2          C151   1.396       .  A
C2            H7   1.085       .  S
C3            C4   1.384   1_554  A
C3          C141   1.451       .  S
C4          C155   1.387   1_556  A
C4            H8   1.087       .  S
C5            C6   1.421       .  A
C5          C154   1.387       .  A
C5          C253   1.478       .  S
C6            H9   1.083       .  S
C10          C11   1.428       .  A
C10          C15   1.395       .  A
C10          C97   1.477       .  S
C11          C12   1.424       .  A
C11          H16   1.083       .  S
C12          C13   1.389       .  A
C12          C69   1.485       .  S
C13          C14   1.382       .  A
C13          H17   1.086       .  S
C14          C15   1.389       .  A
C14         C138   1.449       .  S
C15          H18   1.085       .  S
C19          C20   1.426       .  A
C19          C24   1.398       .  A
C19          C68   1.478       .  S
C20          C21   1.422       .  A
C20          H25   1.083       .  S
C21          C22   1.388       .  A
C21         C100   1.483       .  S
C22          C23   1.384       .  A
C22          H26   1.086       .  S
C23          C24   1.394       .  A
C23         C124   1.458       .  S
C24          H27   1.085       .  S
C28          C29   1.397       .  A
C28         C183   1.424       .  A
C28         C104   1.476       .  S
C29          C30   1.396       .  A
C29          H34   1.085       .  S
C30          C31   1.386       .  A
C30         C127   1.459       .  S
C31          C32   1.388       .  A
C31          H35   1.087       .  S
C32         C183   1.419       .  A
C32         C252   1.478       .  S
C33         C178   1.424       .  A
C33         C182   1.419       .  A
C33          H36   1.083   1_556  S
C37          C38   1.396       .  A
C37          C42   1.425       .  A
C37          C99   1.473       .  S
C38          C39   1.390       .  A
C38          H43   1.085       .  S
C39          C40   1.384       .  A
C39         C110   1.447       .  S
C40          C41   1.386       .  A
C40          H44   1.087       .  S
C41          C42   1.420       .  A
C41          C98   1.478       .  S
C42          H45   1.083       .  S
C46          C47   1.396       .  A
C46          C51   1.428       .  A
C46         C101   1.474       .  S
C47          C48   1.387       .  A
C47          H52   1.085       .  S
C48          C49   1.380       .  A
C48         C113   1.446       .  S
C49          C50   1.387       .  A
C49          H53   1.087       .  S
C50          C51   1.424       .  A
C50          C67   1.484       .  S
C51          H54   1.083       .  S
O55          C66   1.299   1_556  A
O55        Zr241   2.476       .  S
O56          C67   1.285       .  A
O56        Zr390   2.415       .  S
O57          C68   1.299       .  A
O57         Zr63   2.476       .  S
O58          C69   1.287       .  A
O58        Zr663   2.425       .  S
O59          C69   1.304       .  A
O59         Zr93   2.477       .  S
O60          C68   1.290       .  A
O60        Zr392   2.435       .  S
O61          C67   1.305       .  A
O61        Zr663   2.480       .  S
O62          C66   1.292       .  A
O62         Zr63   2.444       .  S
Zr63        O658   2.425   1_455  S
Zr63        O661   2.480   1_455  S
Zr63         O65   2.339       .  S
Zr63         O71   2.331       .  S
Zr63        O664   2.353   1_455  S
Zr63        O673   2.355   1_455  S
O64         Zr93   2.352       .  S
O64        Zr663   2.353       .  S
O64        Zr390   2.352       .  S
O65        Zr241   2.325   1_554  S
O65        Zr392   2.356       .  S
C66         C151   1.479       .  S
H70          O71   0.964       .  S
O71        Zr990   2.356   1_455  S
O71        Zr392   2.340       .  S
H72          O73   0.964       .  S
O73         Zr93   2.329       .  S
O73        Zr663   2.355       .  S
O73        Zr841   2.337   1_554  S
O74          C97   1.298       .  A
O74         Zr90   2.473       .  S
O75          C98   1.284       .  A
O75        Zr391   2.409   1_545  S
O76          C99   1.298       .  A
O76         Zr92   2.469       .  S
O77         C100   1.286       .  A
O77         Zr93   2.419       .  S
O78         C101   1.298       .  A
O78        Zr243   2.472       .  S
O79         C102   1.285       .  A
O79         Zr92   2.413       .  S
O80         C103   1.285       .  A
O80        Zr694   2.413   1_455  S
O81         C104   1.299       .  A
O81        Zr244   2.475       .  S
O82         C103   1.305       .  A
O82         Zr92   2.484       .  S
O83         C554   1.291   1_554  A
O83         Zr93   2.439       .  S
O84         C699   1.291       .  A
O84         Zr90   2.438       .  S
O85         C552   1.304       .  A
O85         Zr91   2.481       .  S
O86         C101   1.289       .  A
O86        Zr691   2.429       .  S
O87         C100   1.304       .  A
O87        Zr390   2.480       .  S
O88          C97   1.290       .  A
O88         Zr94   2.436       .  S
O89         C698   1.305       .  A
O89        Zr244   2.485       .  S
Zr90        O356   2.415   1_545  S
Zr90        O387   2.480   1_545  S
Zr90         O96   2.334       .  S
Zr90        O108   2.330       .  S
Zr90        O364   2.352   1_545  S
Zr90        O971   2.356   1_545  S
Zr91        O205   2.476       .  S
Zr91        O375   2.409       .  S
Zr91        O686   2.429       .  S
Zr91        O215   2.325       .  S
Zr91        O823   2.337   1_455  S
Zr91        O845   2.355   1_455  S
Zr91        O556   2.352       .  S
Zr92        O360   2.435   1_545  S
Zr92        O106   2.351       .  S
Zr92        O365   2.356   1_545  S
Zr92        O371   2.340   1_545  S
Zr92        O696   2.325       .  S
Zr93        O228   2.472   1_554  S
Zr93         O95   2.335   1_554  S
Zr93        O408   2.357       .  S
Zr94        O680   2.413       .  S
Zr94        O231   2.475   1_554  S
Zr94        O239   2.485   1_554  S
Zr94         O96   2.353       .  S
Zr94        O108   2.341       .  S
Zr94        O395   2.325   1_544  S
Zr94        O706   2.353       .  S
O95        Zr841   2.355       .  S
O95        Zr394   2.325   1_556  S
O96        Zr692   2.325       .  S
C98         O689   1.305       .  A
C99         O684   1.291   1_455  A
C102        C182   1.478   1_554  S
C102        O535   1.304   1_544  A
C103        C155   1.478       .  S
C104        O533   1.291   1_545  A
H105        O256   0.966       .  S
O106       Zr541   2.352   1_544  S
O106       Zr694   2.353   1_455  S
O106        H255   0.966   1_554  S
H107        O108   0.964       .  S
O108       Zr393   2.357   1_545  S
C109        C110   1.389       .  A
C109        C114   1.394       .  A
C109        H116   1.084       .  S
C110        C711   1.415   1_455  A
C111        C112   1.386       .  A
C111        C710   1.415       .  A
C111        N118   1.436       .  S
C112        C113   1.390       .  A
C112        H117   1.085       .  S
C113        C714   1.422       .  A
C114        C713   1.422   1_455  A
C114        N115   1.442       .  S
N115        O119   1.263       .  A
N115        O120   1.262       .  A
N118        O121   1.262       .  A
N118        O122   1.262       .  A
C123        C128   1.394       .  A
C123        C424   1.411   1_545  A
C123        H130   1.084       .  S
C124        C125   1.401       .  A
C124        C423   1.411       .  A
C125        C126   1.390       .  A
C125        N132   1.441       .  S
C126        C427   1.411       .  A
C126        H131   1.084       .  S
C127        C128   1.404       .  A
C127        C426   1.411   1_545  A
C128        N129   1.443       .  S
N129        O133   1.263       .  A
N129        O134   1.262       .  A
N132        O135   1.262       .  A
N132        O136   1.263       .  A
C137        C138   1.409       .  A
C137        C142   1.394       .  A
C137        H144   1.085       .  S
C138        C139   1.401       .  A
C139        C140   1.390       .  A
C139        N146   1.443       .  S
C140        C141   1.410       .  A
C140        H145   1.085       .  S
C141        C142   1.403       .  A
C142        N293   1.444   1_554  S
N143        C292   1.444       .  S
N143        O147   1.263       .  A
N143        O148   1.263       .  A
N146        O149   1.263       .  A
N146        O150   1.263       .  A
C151        C156   1.426       .  A
C152        C153   1.394       .  A
C152        H157   1.085       .  S
C153        C154   1.384       .  A
C153        C291   1.451       .  S
C154        H158   1.087       .  S
C155        C156   1.421       .  A
C156        H159   1.083       .  S
C160        C161   1.428       .  A
C160        C165   1.395       .  A
C160        C247   1.477       .  S
C161        C162   1.424       .  A
C161        H166   1.083       .  S
C162        C163   1.389       .  A
C162        C219   1.485       .  S
C163        C164   1.382       .  A
C163        H167   1.086       .  S
C164        C165   1.389       .  A
C164        C288   1.449       .  S
C165        H168   1.085       .  S
C169        C170   1.426       .  A
C169        C174   1.398       .  A
C169        C218   1.478       .  S
C170        C171   1.422       .  A
C170        H175   1.083       .  S
C171        C172   1.388       .  A
C171        C250   1.483       .  S
C172        C173   1.384       .  A
C172        H176   1.086       .  S
C173        C174   1.394       .  A
C173        C274   1.458       .  S
C174        H177   1.085       .  S
C178        C179   1.397       .  A
C178        C254   1.476       .  S
C179        C180   1.396       .  A
C179        H184   1.085       .  S
C180        C181   1.386       .  A
C180        C277   1.459       .  S
C181        C182   1.388       .  A
C181        H185   1.087       .  S
C183        H186   1.083       .  S
C187        C188   1.396       .  A
C187        C192   1.425       .  A
C187        C249   1.473       .  S
C188        C189   1.390       .  A
C188        H193   1.085       .  S
C189        C190   1.384       .  A
C189        C260   1.447       .  S
C190        C191   1.386       .  A
C190        H194   1.087       .  S
C191        C192   1.420       .  A
C191        C248   1.478       .  S
C192        H195   1.083       .  S
C196        C197   1.396       .  A
C196        C201   1.428       .  A
C196        C251   1.474       .  S
C197        C198   1.387       .  A
C197        H202   1.085       .  S
C198        C199   1.380       .  A
C198        C263   1.446       .  S
C199        C200   1.387       .  A
C199        H203   1.087       .  S
C200        C201   1.424       .  A
C200        C217   1.484       .  S
C201        H204   1.083       .  S
O205        C216   1.299       .  A
O206        C217   1.285       .  A
O206       Zr540   2.415       .  S
O207        C218   1.299       .  A
O207       Zr213   2.476       .  S
O208        C219   1.287       .  A
O208       Zr813   2.425       .  S
O209        C219   1.304       .  A
O209       Zr243   2.477       .  S
O210        C218   1.290       .  A
O210       Zr542   2.435       .  S
O211        C217   1.305       .  A
O211       Zr813   2.480       .  S
O212        C216   1.292       .  A
O212       Zr213   2.444       .  S
Zr213       O808   2.425   1_455  S
Zr213       O811   2.480   1_455  S
Zr213       O814   2.353   1_455  S
Zr213       O215   2.339       .  S
Zr213       O823   2.355   1_455  S
Zr213       O221   2.331       .  S
O214       Zr813   2.353       .  S
O214       Zr540   2.352       .  S
O214       Zr243   2.352       .  S
O215       Zr542   2.356       .  S
H220        O221   0.964       .  S
O221      Zr1140   2.356   1_455  S
O221       Zr542   2.340       .  S
H222        O223   0.964       .  S
O223       Zr813   2.355       .  S
O223       Zr691   2.337       .  S
O223       Zr243   2.329       .  S
O224        C247   1.298       .  A
O224       Zr240   2.473       .  S
O225        C248   1.284       .  A
O225       Zr541   2.409   1_545  S
O226        C249   1.298       .  A
O226       Zr242   2.469       .  S
O227        C250   1.286       .  A
O227       Zr243   2.419       .  S
O228        C251   1.298       .  A
O229        C252   1.285       .  A
O229       Zr242   2.413       .  S
O230        C253   1.285       .  A
O230       Zr844   2.413   1_455  S
O231        C254   1.299       .  A
O232        C253   1.305       .  A
O232       Zr242   2.484       .  S
O233        C404   1.291       .  A
O233       Zr243   2.439       .  S
O234        C849   1.291       .  A
O234       Zr240   2.438       .  S
O235        C402   1.304   1_556  A
O235       Zr241   2.481       .  S
O236        C251   1.289       .  A
O236       Zr841   2.429       .  S
O237        C250   1.304       .  A
O237       Zr540   2.480       .  S
O238        C247   1.290       .  A
O238       Zr244   2.436       .  S
O239        C848   1.305       .  A
Zr240       O506   2.415   1_545  S
Zr240       O537   2.480   1_545  S
Zr240       O514   2.352   1_545  S
Zr240      O1121   2.356   1_545  S
Zr240       O246   2.334       .  S
Zr240       O258   2.330       .  S
Zr241       O525   2.409       .  S
Zr241       O836   2.429       .  S
Zr241       O673   2.337   1_456  S
Zr241       O695   2.355   1_455  S
Zr241       O406   2.352   1_556  S
Zr242       O510   2.435   1_545  S
Zr242       O515   2.356   1_545  S
Zr242       O521   2.340   1_545  S
Zr242       O846   2.325       .  S
Zr242       O256   2.351       .  S
Zr243       O245   2.335       .  S
Zr243       O558   2.357       .  S
Zr244       O830   2.413       .  S
Zr244       O545   2.325   1_545  S
Zr244       O246   2.353       .  S
Zr244       O258   2.341       .  S
Zr244       O856   2.353       .  S
O245       Zr691   2.355       .  S
O245       Zr544   2.325       .  S
O246       Zr842   2.325       .  S
C248        O839   1.305       .  A
C249        O834   1.291   1_455  A
C252        O385   1.304   1_545  A
C254        O383   1.291   1_546  A
O256       Zr391   2.352   1_545  S
O256       Zr844   2.353   1_455  S
H257        O258   0.964       .  S
O258       Zr543   2.357   1_545  S
C259        C260   1.389       .  A
C259        C264   1.394       .  A
C259        H266   1.084       .  S
C260        C861   1.415   1_455  A
C261        C860   1.415       .  A
C261        C262   1.386       .  A
C261        N268   1.436       .  S
C262        C263   1.390       .  A
C262        H267   1.085       .  S
C263        C864   1.422       .  A
C264        C863   1.422   1_455  A
C264        N265   1.442       .  S
N265        O269   1.263       .  A
N265        O270   1.262       .  A
N268        O271   1.262       .  A
N268        O272   1.262       .  A
C273        C574   1.411   1_545  A
C273        C278   1.394       .  A
C273        H280   1.084       .  S
C274        C573   1.411       .  A
C274        C275   1.401       .  A
C275        C276   1.390       .  A
C275        N282   1.441       .  S
C276        C577   1.411       .  A
C276        H281   1.084       .  S
C277        C576   1.411   1_545  A
C277        C278   1.404       .  A
C278        N279   1.443       .  S
N279        O283   1.263       .  A
N279        O284   1.262       .  A
N282        O285   1.262       .  A
N282        O286   1.263       .  A
C287        C288   1.409       .  A
C287        C292   1.394       .  A
C287        H294   1.085       .  S
C288        C289   1.401       .  A
C289        C290   1.390       .  A
C289        N296   1.443       .  S
C290        C291   1.410       .  A
C290        H295   1.085       .  S
C291        C292   1.403       .  A
N293        O297   1.263       .  A
N293        O298   1.263       .  A
N296        O299   1.263       .  A
N296        O300   1.263       .  A
C301        C452   1.396       .  A
C301        C306   1.426       .  A
C301        C516   1.479       .  S
C302        C451   1.396       .  A
C302        C303   1.394       .  A
C302        H307   1.085       .  S
C303        C304   1.384   1_554  A
C303        C441   1.451       .  S
C304        C455   1.387   1_556  A
C304        H308   1.087       .  S
C305        C454   1.387       .  A
C305        C306   1.421       .  A
C305        C553   1.478       .  S
C306        H309   1.083       .  S
C310        C311   1.428       .  A
C310        C315   1.395       .  A
C310        C397   1.477       .  S
C311        C312   1.424       .  A
C311        H316   1.083       .  S
C312        C313   1.389       .  A
C312        C369   1.485       .  S
C313        C314   1.382       .  A
C313        H317   1.086       .  S
C314        C315   1.389       .  A
C314        C438   1.449       .  S
C315        H318   1.085       .  S
C319        C320   1.426       .  A
C319        C324   1.398       .  A
C319        C368   1.478       .  S
C320        C321   1.422       .  A
C320        H325   1.083       .  S
C321        C322   1.388       .  A
C321        C400   1.483       .  S
C322        C323   1.384       .  A
C322        H326   1.086       .  S
C323        C324   1.394       .  A
C323        C424   1.458       .  S
C324        H327   1.085       .  S
C328        C329   1.397       .  A
C328        C483   1.424       .  A
C328        C404   1.476       .  S
C329        C330   1.396       .  A
C329        H334   1.085       .  S
C330        C331   1.386       .  A
C330        C427   1.459       .  S
C331        C332   1.388       .  A
C331        H335   1.087       .  S
C332        C483   1.419       .  A
C332        C552   1.478       .  S
C333        C478   1.424       .  A
C333        C482   1.419       .  A
C333        H336   1.083   1_556  S
C337        C338   1.396       .  A
C337        C342   1.425       .  A
C337        C399   1.473       .  S
C338        C339   1.390       .  A
C338        H343   1.085       .  S
C339        C340   1.384       .  A
C339        C410   1.447       .  S
C340        C341   1.386       .  A
C340        H344   1.087       .  S
C341        C342   1.420       .  A
C341        C398   1.478       .  S
C342        H345   1.083       .  S
C346        C347   1.396       .  A
C346        C351   1.428       .  A
C346        C401   1.474       .  S
C347        C348   1.387       .  A
C347        H352   1.085       .  S
C348        C349   1.380       .  A
C348        C413   1.446       .  S
C349        C350   1.387       .  A
C349        H353   1.087       .  S
C350        C351   1.424       .  A
C350        C367   1.484       .  S
C351        H354   1.083       .  S
O355        C366   1.299   1_556  A
O355       Zr541   2.476       .  S
O356        C367   1.285       .  A
O357        C368   1.299       .  A
O357       Zr363   2.476       .  S
O358        C369   1.287       .  A
O358       Zr963   2.425       .  S
O359        C369   1.304       .  A
O359       Zr393   2.477       .  S
O360        C368   1.290       .  A
O361        C367   1.305       .  A
O361       Zr963   2.480       .  S
O362        C366   1.292       .  A
O362       Zr363   2.444       .  S
Zr363       O958   2.425   1_455  S
Zr363       O961   2.480   1_455  S
Zr363       O964   2.353   1_455  S
Zr363       O365   2.339       .  S
Zr363       O973   2.355   1_455  S
Zr363       O371   2.331       .  S
O364       Zr963   2.353       .  S
O364       Zr393   2.352       .  S
O365       Zr541   2.325   1_554  S
C366        C451   1.479       .  S
H370        O371   0.964       .  S
O371       Zr690   2.356   1_465  S
H372        O373   0.964       .  S
O373       Zr963   2.355       .  S
O373      Zr1141   2.337   1_554  S
O373       Zr393   2.329       .  S
O374        C397   1.298       .  A
O374       Zr390   2.473       .  S
O375        C398   1.284       .  A
O376        C399   1.298       .  A
O376       Zr392   2.469       .  S
O377        C400   1.286       .  A
O377       Zr393   2.419       .  S
O378        C401   1.298       .  A
O378       Zr543   2.472       .  S
O379        C402   1.285       .  A
O379       Zr392   2.413       .  S
O380        C403   1.285       .  A
O380       Zr994   2.413   1_455  S
O381        C404   1.299       .  A
O381       Zr544   2.475       .  S
O382        C403   1.305       .  A
O382       Zr392   2.484       .  S
O383       Zr393   2.439       .  S
O384        C999   1.291       .  A
O384       Zr390   2.438       .  S
O385       Zr391   2.481       .  S
O386        C401   1.289       .  A
O386       Zr991   2.429       .  S
O387        C400   1.304       .  A
O388        C397   1.290       .  A
O388       Zr394   2.436       .  S
O389        C998   1.305       .  A
O389       Zr544   2.485       .  S
Zr390       O671   2.356       .  S
Zr390       O396   2.334       .  S
Zr390       O408   2.330       .  S
Zr391       O505   2.476       .  S
Zr391       O986   2.429       .  S
Zr391       O515   2.325       .  S
Zr391      O1123   2.337   1_455  S
Zr391      O1145   2.355   1_455  S
Zr392       O996   2.325       .  S
Zr392       O406   2.351       .  S
Zr393       O528   2.472   1_554  S
Zr393       O395   2.335   1_554  S
Zr394       O980   2.413       .  S
Zr394       O531   2.475   1_554  S
Zr394       O539   2.485   1_554  S
Zr394       O396   2.353       .  S
Zr394       O408   2.341       .  S
Zr394      O1006   2.353       .  S
O395      Zr1141   2.355       .  S
O396       Zr992   2.325       .  S
C398        O989   1.305       .  A
C399        O984   1.291   1_455  A
C402        C482   1.478   1_554  S
C403        C455   1.478       .  S
H405        O556   0.966       .  S
O406       Zr994   2.353   1_455  S
O406        H555   0.966   1_554  S
H407        O408   0.964       .  S
C409        C410   1.389       .  A
C409        C414   1.394       .  A
C409        H416   1.084       .  S
C410       C1011   1.415   1_455  A
C411       C1010   1.415       .  A
C411        C412   1.386       .  A
C411        N418   1.436       .  S
C412        C413   1.390       .  A
C412        H417   1.085       .  S
C413       C1014   1.422       .  A
C414       C1013   1.422   1_455  A
C414        N415   1.442       .  S
N415        O419   1.263       .  A
N415        O420   1.262       .  A
N418        O421   1.262       .  A
N418        O422   1.262       .  A
C423        C428   1.394       .  A
C423        H430   1.084       .  S
C424        C425   1.401       .  A
C425        C426   1.390       .  A
C425        N432   1.441       .  S
C426        H431   1.084       .  S
C427        C428   1.404       .  A
C428        N429   1.443       .  S
N429        O433   1.263       .  A
N429        O434   1.262       .  A
N432        O435   1.262       .  A
N432        O436   1.263       .  A
C437        C438   1.409       .  A
C437        C442   1.394       .  A
C437        H444   1.085       .  S
C438        C439   1.401       .  A
C439        C440   1.390       .  A
C439        N446   1.443       .  S
C440        C441   1.410       .  A
C440        H445   1.085       .  S
C441        C442   1.403       .  A
C442        N593   1.444   1_554  S
N443        C592   1.444       .  S
N443        O447   1.263       .  A
N443        O448   1.263       .  A
N446        O449   1.263       .  A
N446        O450   1.263       .  A
C451        C456   1.426       .  A
C452        C453   1.394       .  A
C452        H457   1.085       .  S
C453        C454   1.384       .  A
C453        C591   1.451       .  S
C454        H458   1.087       .  S
C455        C456   1.421       .  A
C456        H459   1.083       .  S
C460        C461   1.428       .  A
C460        C465   1.395       .  A
C460        C547   1.477       .  S
C461        C462   1.424       .  A
C461        H466   1.083       .  S
C462        C463   1.389       .  A
C462        C519   1.485       .  S
C463        C464   1.382       .  A
C463        H467   1.086       .  S
C464        C465   1.389       .  A
C464        C588   1.449       .  S
C465        H468   1.085       .  S
C469        C470   1.426       .  A
C469        C474   1.398       .  A
C469        C518   1.478       .  S
C470        C471   1.422       .  A
C470        H475   1.083       .  S
C471        C472   1.388       .  A
C471        C550   1.483       .  S
C472        C473   1.384       .  A
C472        H476   1.086       .  S
C473        C474   1.394       .  A
C473        C574   1.458       .  S
C474        H477   1.085       .  S
C478        C479   1.397       .  A
C478        C554   1.476       .  S
C479        C480   1.396       .  A
C479        H484   1.085       .  S
C480        C481   1.386       .  A
C480        C577   1.459       .  S
C481        C482   1.388       .  A
C481        H485   1.087       .  S
C483        H486   1.083       .  S
C487        C488   1.396       .  A
C487        C492   1.425       .  A
C487        C549   1.473       .  S
C488        C489   1.390       .  A
C488        H493   1.085       .  S
C489        C490   1.384       .  A
C489        C560   1.447       .  S
C490        C491   1.386       .  A
C490        H494   1.087       .  S
C491        C492   1.420       .  A
C491        C548   1.478       .  S
C492        H495   1.083       .  S
C496        C497   1.396       .  A
C496        C501   1.428       .  A
C496        C551   1.474       .  S
C497        C498   1.387       .  A
C497        H502   1.085       .  S
C498        C499   1.380       .  A
C498        C563   1.446       .  S
C499        C500   1.387       .  A
C499        H503   1.087       .  S
C500        C501   1.424       .  A
C500        C517   1.484       .  S
C501        H504   1.083       .  S
O505        C516   1.299       .  A
O506        C517   1.285       .  A
O507        C518   1.299       .  A
O507       Zr513   2.476       .  S
O508        C519   1.287       .  A
O508      Zr1113   2.425       .  S
O509        C519   1.304       .  A
O509       Zr543   2.477       .  S
O510        C518   1.290       .  A
O511        C517   1.305       .  A
O511      Zr1113   2.480       .  S
O512        C516   1.292       .  A
O512       Zr513   2.444       .  S
Zr513      O1108   2.425   1_455  S
Zr513      O1111   2.480   1_455  S
Zr513      O1114   2.353   1_455  S
Zr513       O515   2.339       .  S
Zr513      O1123   2.355   1_455  S
Zr513       O521   2.331       .  S
O514      Zr1113   2.353       .  S
O514       Zr543   2.352       .  S
H520        O521   0.964       .  S
O521       Zr840   2.356   1_465  S
H522        O523   0.964       .  S
O523      Zr1113   2.355       .  S
O523       Zr991   2.337       .  S
O523       Zr543   2.329       .  S
O524        C547   1.298       .  A
O524       Zr540   2.473       .  S
O525        C548   1.284       .  A
O526        C549   1.298       .  A
O526       Zr542   2.469       .  S
O527        C550   1.286       .  A
O527       Zr543   2.419       .  S
O528        C551   1.298       .  A
O529        C552   1.285       .  A
O529       Zr542   2.413       .  S
O530        C553   1.285       .  A
O530      Zr1144   2.413   1_455  S
O531        C554   1.299       .  A
O532        C553   1.305       .  A
O532       Zr542   2.484       .  S
O533       Zr543   2.439       .  S
O534       C1149   1.291       .  A
O534       Zr540   2.438       .  S
O535       Zr541   2.481       .  S
O536        C551   1.289       .  A
O536      Zr1141   2.429       .  S
O537        C550   1.304       .  A
O538        C547   1.290       .  A
O538       Zr544   2.436       .  S
O539       C1148   1.305       .  A
Zr540       O821   2.356       .  S
Zr540       O546   2.334       .  S
Zr540       O558   2.330       .  S
Zr541      O1136   2.429       .  S
Zr541       O973   2.337   1_456  S
Zr541       O995   2.355   1_455  S
Zr542      O1146   2.325       .  S
Zr542       O556   2.351       .  S
Zr543       O545   2.335       .  S
Zr544      O1130   2.413       .  S
Zr544       O546   2.353       .  S
Zr544       O558   2.341       .  S
Zr544      O1156   2.353       .  S
O545       Zr991   2.355       .  S
O546      Zr1142   2.325       .  S
C548       O1139   1.305       .  A
C549       O1134   1.291   1_455  A
O556      Zr1144   2.353   1_455  S
H557        O558   0.964       .  S
C559        C560   1.389       .  A
C559        C564   1.394       .  A
C559        H566   1.084       .  S
C560       C1161   1.415   1_455  A
C561       C1160   1.415       .  A
C561        C562   1.386       .  A
C561        N568   1.436       .  S
C562        C563   1.390       .  A
C562        H567   1.085       .  S
C563       C1164   1.422       .  A
C564       C1163   1.422   1_455  A
C564        N565   1.442       .  S
N565        O569   1.263       .  A
N565        O570   1.262       .  A
N568        O571   1.262       .  A
N568        O572   1.262       .  A
C573        C578   1.394       .  A
C573        H580   1.084       .  S
C574        C575   1.401       .  A
C575        C576   1.390       .  A
C575        N582   1.441       .  S
C576        H581   1.084       .  S
C577        C578   1.404       .  A
C578        N579   1.443       .  S
N579        O583   1.263       .  A
N579        O584   1.262       .  A
N582        O585   1.262       .  A
N582        O586   1.263       .  A
C587        C588   1.409       .  A
C587        C592   1.394       .  A
C587        H594   1.085       .  S
C588        C589   1.401       .  A
C589        C590   1.390       .  A
C589        N596   1.443       .  S
C590        C591   1.410       .  A
C590        H595   1.085       .  S
C591        C592   1.403       .  A
N593        O597   1.263       .  A
N593        O598   1.263       .  A
N596        O599   1.263       .  A
N596        O600   1.263       .  A
C601        C752   1.396       .  A
C601        C606   1.426       .  A
C601        C816   1.479       .  S
C602        C751   1.396       .  A
C602        C603   1.394       .  A
C602        H607   1.085       .  S
C603        C604   1.384   1_554  A
C603        C741   1.451       .  S
C604        C755   1.387   1_556  A
C604        H608   1.087       .  S
C605        C754   1.387       .  A
C605        C606   1.421       .  A
C605        C853   1.478       .  S
C606        H609   1.083       .  S
C610        C611   1.428       .  A
C610        C615   1.395       .  A
C610        C697   1.477       .  S
C611        C612   1.424       .  A
C611        H616   1.083       .  S
C612        C613   1.389       .  A
C612        C669   1.485       .  S
C613        C614   1.382       .  A
C613        H617   1.086       .  S
C614        C615   1.389       .  A
C614        C738   1.449       .  S
C615        H618   1.085       .  S
C619        C620   1.426       .  A
C619        C624   1.398       .  A
C619        C668   1.478       .  S
C620        C621   1.422       .  A
C620        H625   1.083       .  S
C621        C622   1.388       .  A
C621        C700   1.483       .  S
C622        C623   1.384       .  A
C622        H626   1.086       .  S
C623        C624   1.394       .  A
C623        C724   1.458       .  S
C624        H627   1.085       .  S
C628        C629   1.397       .  A
C628        C783   1.424       .  A
C628        C704   1.476       .  S
C629        C630   1.396       .  A
C629        H634   1.085       .  S
C630        C631   1.386       .  A
C630        C727   1.459       .  S
C631        C632   1.388       .  A
C631        H635   1.087       .  S
C632        C783   1.419       .  A
C632        C852   1.478       .  S
C633        C778   1.424       .  A
C633        C782   1.419       .  A
C633        H636   1.083   1_556  S
C637        C638   1.396       .  A
C637        C642   1.425       .  A
C637        C699   1.473       .  S
C638        C639   1.390       .  A
C638        H643   1.085       .  S
C639        C640   1.384       .  A
C639        C710   1.447       .  S
C640        C641   1.386       .  A
C640        H644   1.087       .  S
C641        C642   1.420       .  A
C641        C698   1.478       .  S
C642        H645   1.083       .  S
C646        C647   1.396       .  A
C646        C651   1.428       .  A
C646        C701   1.474       .  S
C647        C648   1.387       .  A
C647        H652   1.085       .  S
C648        C649   1.380       .  A
C648        C713   1.446       .  S
C649        C650   1.387       .  A
C649        H653   1.087       .  S
C650        C651   1.424       .  A
C650        C667   1.484       .  S
C651        H654   1.083       .  S
O655        C666   1.299   1_556  A
O655       Zr841   2.476       .  S
O656        C667   1.285       .  A
O656       Zr990   2.415       .  S
O657        C668   1.299       .  A
O657       Zr663   2.476       .  S
O658        C669   1.287       .  A
O659        C669   1.304       .  A
O659       Zr693   2.477       .  S
O660        C668   1.290       .  A
O660       Zr992   2.435       .  S
O661        C667   1.305       .  A
O662        C666   1.292       .  A
O662       Zr663   2.444       .  S
Zr663       O665   2.339       .  S
Zr663       O671   2.331       .  S
O664       Zr990   2.352       .  S
O664       Zr693   2.352       .  S
O665       Zr841   2.325   1_554  S
O665       Zr992   2.356       .  S
C666        C751   1.479       .  S
H670        O671   0.964       .  S
O671       Zr992   2.340       .  S
H672        O673   0.964       .  S
O673       Zr693   2.329       .  S
O674        C697   1.298       .  A
O674       Zr690   2.473       .  S
O675        C698   1.284       .  A
O675       Zr991   2.409   1_545  S
O676        C699   1.298       .  A
O676       Zr692   2.469       .  S
O677        C700   1.286       .  A
O677       Zr693   2.419       .  S
O678        C701   1.298       .  A
O678       Zr843   2.472       .  S
O679        C702   1.285       .  A
O679       Zr692   2.413       .  S
O680        C703   1.285       .  A
O681        C704   1.299       .  A
O681       Zr844   2.475       .  S
O682        C703   1.305       .  A
O682       Zr692   2.484       .  S
O683       C1154   1.291   1_554  A
O683       Zr693   2.439       .  S
O684       Zr690   2.438       .  S
O685       C1152   1.304       .  A
O685       Zr691   2.481       .  S
O686        C701   1.289   1_455  A
O687        C700   1.304       .  A
O687       Zr990   2.480       .  S
O688        C697   1.290       .  A
O688       Zr694   2.436       .  S
O689       Zr844   2.485   1_455  S
Zr690       O956   2.415   1_545  S
Zr690       O987   2.480   1_545  S
Zr690       O964   2.352   1_545  S
Zr690       O696   2.334   1_655  S
Zr690       O708   2.330       .  S
Zr691       O805   2.476       .  S
Zr691       O975   2.409       .  S
Zr691       O815   2.325       .  S
Zr691      O1156   2.352       .  S
Zr692       O960   2.435   1_545  S
Zr692       O965   2.356   1_545  S
Zr692       O971   2.340   1_545  S
Zr692       O706   2.351       .  S
Zr693       O828   2.472   1_554  S
Zr693       O695   2.335   1_554  S
Zr693      O1008   2.357       .  S
Zr694       O831   2.475   1_554  S
Zr694       O839   2.485   1_654  S
Zr694       O995   2.325   1_544  S
Zr694       O696   2.353   1_655  S
Zr694       O708   2.341       .  S
O695       Zr994   2.325   1_556  S
C702        C782   1.478   1_554  S
C702       O1135   1.304   1_544  A
C703        C755   1.478       .  S
C704       O1133   1.291   1_545  A
H705        O856   0.966       .  S
O706      Zr1141   2.352   1_544  S
O706        H855   0.966   1_554  S
H707        O708   0.964       .  S
O708       Zr993   2.357   1_545  S
C709        C710   1.389       .  A
C709        C714   1.394       .  A
C709        H716   1.084       .  S
C711        C712   1.386       .  A
C711        N718   1.436       .  S
C712        C713   1.390       .  A
C712        H717   1.085       .  S
C714        N715   1.442       .  S
N715        O719   1.263       .  A
N715        O720   1.262       .  A
N718        O721   1.262       .  A
N718        O722   1.262       .  A
C723       C1024   1.411   1_545  A
C723        C728   1.394       .  A
C723        H730   1.084       .  S
C724       C1023   1.411       .  A
C724        C725   1.401       .  A
C725        C726   1.390       .  A
C725        N732   1.441       .  S
C726       C1027   1.411       .  A
C726        H731   1.084       .  S
C727       C1026   1.411   1_545  A
C727        C728   1.404       .  A
C728        N729   1.443       .  S
N729        O733   1.263       .  A
N729        O734   1.262       .  A
N732        O735   1.262       .  A
N732        O736   1.263       .  A
C737        C738   1.409       .  A
C737        C742   1.394       .  A
C737        H744   1.085       .  S
C738        C739   1.401       .  A
C739        C740   1.390       .  A
C739        N746   1.443       .  S
C740        C741   1.410       .  A
C740        H745   1.085       .  S
C741        C742   1.403       .  A
C742        N893   1.444   1_554  S
N743        C892   1.444       .  S
N743        O747   1.263       .  A
N743        O748   1.263       .  A
N746        O749   1.263       .  A
N746        O750   1.263       .  A
C751        C756   1.426       .  A
C752        C753   1.394       .  A
C752        H757   1.085       .  S
C753        C754   1.384       .  A
C753        C891   1.451       .  S
C754        H758   1.087       .  S
C755        C756   1.421       .  A
C756        H759   1.083       .  S
C760        C761   1.428       .  A
C760        C765   1.395       .  A
C760        C847   1.477       .  S
C761        C762   1.424       .  A
C761        H766   1.083       .  S
C762        C763   1.389       .  A
C762        C819   1.485       .  S
C763        C764   1.382       .  A
C763        H767   1.086       .  S
C764        C765   1.389       .  A
C764        C888   1.449       .  S
C765        H768   1.085       .  S
C769        C770   1.426       .  A
C769        C774   1.398       .  A
C769        C818   1.478       .  S
C770        C771   1.422       .  A
C770        H775   1.083       .  S
C771        C772   1.388       .  A
C771        C850   1.483       .  S
C772        C773   1.384       .  A
C772        H776   1.086       .  S
C773        C774   1.394       .  A
C773        C874   1.458       .  S
C774        H777   1.085       .  S
C778        C779   1.397       .  A
C778        C854   1.476       .  S
C779        C780   1.396       .  A
C779        H784   1.085       .  S
C780        C781   1.386       .  A
C780        C877   1.459       .  S
C781        C782   1.388       .  A
C781        H785   1.087       .  S
C783        H786   1.083       .  S
C787        C788   1.396       .  A
C787        C792   1.425       .  A
C787        C849   1.473       .  S
C788        C789   1.390       .  A
C788        H793   1.085       .  S
C789        C790   1.384       .  A
C789        C860   1.447       .  S
C790        C791   1.386       .  A
C790        H794   1.087       .  S
C791        C792   1.420       .  A
C791        C848   1.478       .  S
C792        H795   1.083       .  S
C796        C797   1.396       .  A
C796        C801   1.428       .  A
C796        C851   1.474       .  S
C797        C798   1.387       .  A
C797        H802   1.085       .  S
C798        C799   1.380       .  A
C798        C863   1.446       .  S
C799        C800   1.387       .  A
C799        H803   1.087       .  S
C800        C801   1.424       .  A
C800        C817   1.484       .  S
C801        H804   1.083       .  S
O805        C816   1.299       .  A
O806        C817   1.285       .  A
O806      Zr1140   2.415       .  S
O807        C818   1.299       .  A
O807       Zr813   2.476       .  S
O808        C819   1.287       .  A
O809        C819   1.304       .  A
O809       Zr843   2.477       .  S
O810        C818   1.290       .  A
O810      Zr1142   2.435       .  S
O811        C817   1.305       .  A
O812        C816   1.292       .  A
O812       Zr813   2.444       .  S
Zr813       O815   2.339       .  S
Zr813       O821   2.331       .  S
O814      Zr1140   2.352       .  S
O814       Zr843   2.352       .  S
O815      Zr1142   2.356       .  S
H820        O821   0.964       .  S
O821      Zr1142   2.340       .  S
H822        O823   0.964       .  S
O823       Zr843   2.329       .  S
O824        C847   1.298       .  A
O824       Zr840   2.473       .  S
O825        C848   1.284       .  A
O825      Zr1141   2.409   1_545  S
O826        C849   1.298       .  A
O826       Zr842   2.469       .  S
O827        C850   1.286       .  A
O827       Zr843   2.419       .  S
O828        C851   1.298       .  A
O829        C852   1.285       .  A
O829       Zr842   2.413       .  S
O830        C853   1.285       .  A
O831        C854   1.299       .  A
O832        C853   1.305       .  A
O832       Zr842   2.484       .  S
O833       C1004   1.291       .  A
O833       Zr843   2.439       .  S
O834       Zr840   2.438       .  S
O835       C1002   1.304   1_556  A
O835       Zr841   2.481       .  S
O836        C851   1.289   1_455  A
O837        C850   1.304       .  A
O837      Zr1140   2.480       .  S
O838        C847   1.290       .  A
O838       Zr844   2.436       .  S
Zr840      O1106   2.415   1_545  S
Zr840      O1137   2.480   1_545  S
Zr840      O1114   2.352   1_545  S
Zr840       O846   2.334   1_655  S
Zr840       O858   2.330       .  S
Zr841      O1125   2.409       .  S
Zr841      O1006   2.352   1_556  S
Zr842      O1110   2.435   1_545  S
Zr842      O1115   2.356   1_545  S
Zr842      O1121   2.340   1_545  S
Zr842       O856   2.351       .  S
Zr843       O845   2.335       .  S
Zr843      O1158   2.357       .  S
Zr844      O1145   2.325   1_545  S
Zr844       O846   2.353   1_655  S
Zr844       O858   2.341       .  S
O845      Zr1144   2.325       .  S
C852        O985   1.304   1_545  A
C854        O983   1.291   1_546  A
O856       Zr991   2.352   1_545  S
H857        O858   0.964       .  S
O858      Zr1143   2.357   1_545  S
C859        C860   1.389       .  A
C859        C864   1.394       .  A
C859        H866   1.084       .  S
C861        C862   1.386       .  A
C861        N868   1.436       .  S
C862        C863   1.390       .  A
C862        H867   1.085       .  S
C864        N865   1.442       .  S
N865        O869   1.263       .  A
N865        O870   1.262       .  A
N868        O871   1.262       .  A
N868        O872   1.262       .  A
C873       C1174   1.411   1_545  A
C873        C878   1.394       .  A
C873        H880   1.084       .  S
C874       C1173   1.411       .  A
C874        C875   1.401       .  A
C875        C876   1.390       .  A
C875        N882   1.441       .  S
C876       C1177   1.411       .  A
C876        H881   1.084       .  S
C877       C1176   1.411   1_545  A
C877        C878   1.404       .  A
C878        N879   1.443       .  S
N879        O883   1.263       .  A
N879        O884   1.262       .  A
N882        O885   1.262       .  A
N882        O886   1.263       .  A
C887        C888   1.409       .  A
C887        C892   1.394       .  A
C887        H894   1.085       .  S
C888        C889   1.401       .  A
C889        C890   1.390       .  A
C889        N896   1.443       .  S
C890        C891   1.410       .  A
C890        H895   1.085       .  S
C891        C892   1.403       .  A
N893        O897   1.263       .  A
N893        O898   1.263       .  A
N896        O899   1.263       .  A
N896        O900   1.263       .  A
C901       C1052   1.396       .  A
C901        C906   1.426       .  A
C901       C1116   1.479       .  S
C902       C1051   1.396       .  A
C902        C903   1.394       .  A
C902        H907   1.085       .  S
C903        C904   1.384   1_554  A
C903       C1041   1.451       .  S
C904       C1055   1.387   1_556  A
C904        H908   1.087       .  S
C905       C1054   1.387       .  A
C905        C906   1.421       .  A
C905       C1153   1.478       .  S
C906        H909   1.083       .  S
C910        C911   1.428       .  A
C910        C915   1.395       .  A
C910        C997   1.477       .  S
C911        C912   1.424       .  A
C911        H916   1.083       .  S
C912        C913   1.389       .  A
C912        C969   1.485       .  S
C913        C914   1.382       .  A
C913        H917   1.086       .  S
C914        C915   1.389       .  A
C914       C1038   1.449       .  S
C915        H918   1.085       .  S
C919        C920   1.426       .  A
C919        C924   1.398       .  A
C919        C968   1.478       .  S
C920        C921   1.422       .  A
C920        H925   1.083       .  S
C921        C922   1.388       .  A
C921       C1000   1.483       .  S
C922        C923   1.384       .  A
C922        H926   1.086       .  S
C923        C924   1.394       .  A
C923       C1024   1.458       .  S
C924        H927   1.085       .  S
C928        C929   1.397       .  A
C928       C1083   1.424       .  A
C928       C1004   1.476       .  S
C929        C930   1.396       .  A
C929        H934   1.085       .  S
C930        C931   1.386       .  A
C930       C1027   1.459       .  S
C931        C932   1.388       .  A
C931        H935   1.087       .  S
C932       C1083   1.419       .  A
C932       C1152   1.478       .  S
C933       C1078   1.424       .  A
C933       C1082   1.419       .  A
C933        H936   1.083   1_556  S
C937        C938   1.396       .  A
C937        C942   1.425       .  A
C937        C999   1.473       .  S
C938        C939   1.390       .  A
C938        H943   1.085       .  S
C939        C940   1.384       .  A
C939       C1010   1.447       .  S
C940        C941   1.386       .  A
C940        H944   1.087       .  S
C941        C942   1.420       .  A
C941        C998   1.478       .  S
C942        H945   1.083       .  S
C946        C947   1.396       .  A
C946        C951   1.428       .  A
C946       C1001   1.474       .  S
C947        C948   1.387       .  A
C947        H952   1.085       .  S
C948        C949   1.380       .  A
C948       C1013   1.446       .  S
C949        C950   1.387       .  A
C949        H953   1.087       .  S
C950        C951   1.424       .  A
C950        C967   1.484       .  S
C951        H954   1.083       .  S
O955        C966   1.299   1_556  A
O955      Zr1141   2.476       .  S
O956        C967   1.285       .  A
O957        C968   1.299       .  A
O957       Zr963   2.476       .  S
O958        C969   1.287       .  A
O959        C969   1.304       .  A
O959       Zr993   2.477       .  S
O960        C968   1.290       .  A
O961        C967   1.305       .  A
O962        C966   1.292       .  A
O962       Zr963   2.444       .  S
Zr963       O965   2.339       .  S
Zr963       O971   2.331       .  S
O964       Zr993   2.352       .  S
O965      Zr1141   2.325   1_554  S
C966       C1051   1.479       .  S
H970        O971   0.964       .  S
H972        O973   0.964       .  S
O973       Zr993   2.329       .  S
O974        C997   1.298       .  A
O974       Zr990   2.473       .  S
O975        C998   1.284       .  A
O976        C999   1.298       .  A
O976       Zr992   2.469       .  S
O977       C1000   1.286       .  A
O977       Zr993   2.419       .  S
O978       C1001   1.298       .  A
O978      Zr1143   2.472       .  S
O979       C1002   1.285       .  A
O979       Zr992   2.413       .  S
O980       C1003   1.285       .  A
O981       C1004   1.299       .  A
O981      Zr1144   2.475       .  S
O982       C1003   1.305       .  A
O982       Zr992   2.484       .  S
O983       Zr993   2.439       .  S
O984       Zr990   2.438       .  S
O985       Zr991   2.481       .  S
O986       C1001   1.289   1_455  A
O987       C1000   1.304       .  A
O988        C997   1.290       .  A
O988       Zr994   2.436       .  S
O989      Zr1144   2.485   1_455  S
Zr990       O996   2.334   1_655  S
Zr990      O1008   2.330       .  S
Zr991      O1105   2.476       .  S
Zr991      O1115   2.325       .  S
Zr992      O1006   2.351       .  S
Zr993      O1128   2.472   1_554  S
Zr993       O995   2.335   1_554  S
Zr994      O1131   2.475   1_554  S
Zr994      O1139   2.485   1_654  S
Zr994       O996   2.353   1_655  S
Zr994      O1008   2.341       .  S
C1002      C1082   1.478   1_554  S
C1003      C1055   1.478       .  S
H1005      O1156   0.966       .  S
O1006      H1155   0.966   1_554  S
H1007      O1008   0.964       .  S
C1009      C1010   1.389       .  A
C1009      C1014   1.394       .  A
C1009      H1016   1.084       .  S
C1011      C1012   1.386       .  A
C1011      N1018   1.436       .  S
C1012      C1013   1.390       .  A
C1012      H1017   1.085       .  S
C1014      N1015   1.442       .  S
N1015      O1019   1.263       .  A
N1015      O1020   1.262       .  A
N1018      O1021   1.262       .  A
N1018      O1022   1.262       .  A
C1023      C1028   1.394       .  A
C1023      H1030   1.084       .  S
C1024      C1025   1.401       .  A
C1025      C1026   1.390       .  A
C1025      N1032   1.441       .  S
C1026      H1031   1.084       .  S
C1027      C1028   1.404       .  A
C1028      N1029   1.443       .  S
N1029      O1033   1.263       .  A
N1029      O1034   1.262       .  A
N1032      O1035   1.262       .  A
N1032      O1036   1.263       .  A
C1037      C1038   1.409       .  A
C1037      C1042   1.394       .  A
C1037      H1044   1.085       .  S
C1038      C1039   1.401       .  A
C1039      C1040   1.390       .  A
C1039      N1046   1.443       .  S
C1040      C1041   1.410       .  A
C1040      H1045   1.085       .  S
C1041      C1042   1.403       .  A
C1042      N1193   1.444   1_554  S
N1043      C1192   1.444       .  S
N1043      O1047   1.263       .  A
N1043      O1048   1.263       .  A
N1046      O1049   1.263       .  A
N1046      O1050   1.263       .  A
C1051      C1056   1.426       .  A
C1052      C1053   1.394       .  A
C1052      H1057   1.085       .  S
C1053      C1054   1.384       .  A
C1053      C1191   1.451       .  S
C1054      H1058   1.087       .  S
C1055      C1056   1.421       .  A
C1056      H1059   1.083       .  S
C1060      C1061   1.428       .  A
C1060      C1065   1.395       .  A
C1060      C1147   1.477       .  S
C1061      C1062   1.424       .  A
C1061      H1066   1.083       .  S
C1062      C1063   1.389       .  A
C1062      C1119   1.485       .  S
C1063      C1064   1.382       .  A
C1063      H1067   1.086       .  S
C1064      C1065   1.389       .  A
C1064      C1188   1.449       .  S
C1065      H1068   1.085       .  S
C1069      C1070   1.426       .  A
C1069      C1074   1.398       .  A
C1069      C1118   1.478       .  S
C1070      C1071   1.422       .  A
C1070      H1075   1.083       .  S
C1071      C1072   1.388       .  A
C1071      C1150   1.483       .  S
C1072      C1073   1.384       .  A
C1072      H1076   1.086       .  S
C1073      C1074   1.394       .  A
C1073      C1174   1.458       .  S
C1074      H1077   1.085       .  S
C1078      C1079   1.397       .  A
C1078      C1154   1.476       .  S
C1079      C1080   1.396       .  A
C1079      H1084   1.085       .  S
C1080      C1081   1.386       .  A
C1080      C1177   1.459       .  S
C1081      C1082   1.388       .  A
C1081      H1085   1.087       .  S
C1083      H1086   1.083       .  S
C1087      C1088   1.396       .  A
C1087      C1092   1.425       .  A
C1087      C1149   1.473       .  S
C1088      C1089   1.390       .  A
C1088      H1093   1.085       .  S
C1089      C1090   1.384       .  A
C1089      C1160   1.447       .  S
C1090      C1091   1.386       .  A
C1090      H1094   1.087       .  S
C1091      C1092   1.420       .  A
C1091      C1148   1.478       .  S
C1092      H1095   1.083       .  S
C1096      C1097   1.396       .  A
C1096      C1101   1.428       .  A
C1096      C1151   1.474       .  S
C1097      C1098   1.387       .  A
C1097      H1102   1.085       .  S
C1098      C1099   1.380       .  A
C1098      C1163   1.446       .  S
C1099      C1100   1.387       .  A
C1099      H1103   1.087       .  S
C1100      C1101   1.424       .  A
C1100      C1117   1.484       .  S
C1101      H1104   1.083       .  S
O1105      C1116   1.299       .  A
O1106      C1117   1.285       .  A
O1107      C1118   1.299       .  A
O1107     Zr1113   2.476       .  S
O1108      C1119   1.287       .  A
O1109      C1119   1.304       .  A
O1109     Zr1143   2.477       .  S
O1110      C1118   1.290       .  A
O1111      C1117   1.305       .  A
O1112      C1116   1.292       .  A
O1112     Zr1113   2.444       .  S
Zr1113     O1115   2.339       .  S
Zr1113     O1121   2.331       .  S
O1114     Zr1143   2.352       .  S
H1120      O1121   0.964       .  S
H1122      O1123   0.964       .  S
O1123     Zr1143   2.329       .  S
O1124      C1147   1.298       .  A
O1124     Zr1140   2.473       .  S
O1125      C1148   1.284       .  A
O1126      C1149   1.298       .  A
O1126     Zr1142   2.469       .  S
O1127      C1150   1.286       .  A
O1127     Zr1143   2.419       .  S
O1128      C1151   1.298       .  A
O1129      C1152   1.285       .  A
O1129     Zr1142   2.413       .  S
O1130      C1153   1.285       .  A
O1131      C1154   1.299       .  A
O1132      C1153   1.305       .  A
O1132     Zr1142   2.484       .  S
O1133     Zr1143   2.439       .  S
O1134     Zr1140   2.438       .  S
O1135     Zr1141   2.481       .  S
O1136      C1151   1.289   1_455  A
O1137      C1150   1.304       .  A
O1138      C1147   1.290       .  A
O1138     Zr1144   2.436       .  S
Zr1140     O1146   2.334   1_655  S
Zr1140     O1158   2.330       .  S
Zr1142     O1156   2.351       .  S
Zr1143     O1145   2.335       .  S
Zr1144     O1146   2.353   1_655  S
Zr1144     O1158   2.341       .  S
H1157      O1158   0.964       .  S
C1159      C1160   1.389       .  A
C1159      C1164   1.394       .  A
C1159      H1166   1.084       .  S
C1161      C1162   1.386       .  A
C1161      N1168   1.436       .  S
C1162      C1163   1.390       .  A
C1162      H1167   1.085       .  S
C1164      N1165   1.442       .  S
N1165      O1169   1.263       .  A
N1165      O1170   1.262       .  A
N1168      O1171   1.262       .  A
N1168      O1172   1.262       .  A
C1173      C1178   1.394       .  A
C1173      H1180   1.084       .  S
C1174      C1175   1.401       .  A
C1175      C1176   1.390       .  A
C1175      N1182   1.441       .  S
C1176      H1181   1.084       .  S
C1177      C1178   1.404       .  A
C1178      N1179   1.443       .  S
N1179      O1183   1.263       .  A
N1179      O1184   1.262       .  A
N1182      O1185   1.262       .  A
N1182      O1186   1.263       .  A
C1187      C1188   1.409       .  A
C1187      C1192   1.394       .  A
C1187      H1194   1.085       .  S
C1188      C1189   1.401       .  A
C1189      C1190   1.390       .  A
C1189      N1196   1.443       .  S
C1190      C1191   1.410       .  A
C1190      H1195   1.085       .  S
C1191      C1192   1.403       .  A
N1193      O1197   1.263       .  A
N1193      O1198   1.263       .  A
N1196      O1199   1.263       .  A
N1196      O1200   1.263       .  A
