geometry optimzed in LAMMPS
_audit_creation_date              2020-12-01 
_audit_creation_method            'lammps2cif' 
_symmetry_space_group_name_H-M    'P1' 
_symmetry_Int_Tables_number       1 
_symmetry_cell_setting            triclinic 
loop_ 
_symmetry_equiv_pos_as_xyz 
  x,y,z 
_cell_length_a                    26.59047567 
_cell_length_b                    26.73850610893438 
_cell_length_c                    22.387320712086225 
_cell_angle_alpha                 90.38063454153544 
_cell_angle_beta                  89.08607166731234 
_cell_angle_gamma                 118.12376202421106 
loop_ 
_atom_site_label 
_atom_site_type_symbol 
_atom_site_fract_x 
_atom_site_fract_y 
_atom_site_fract_z 
_atom_site_charge 
O1          O  0.40864404  0.16274298  0.32379444    -0.82200
C2          C  0.22131221  0.12315606  0.17182340     0.97100
O3          O  0.23693386  0.09003748  0.19458896    -0.71400
O4          O  0.33577139  0.08945636  0.17640191    -0.75000
Al5        Al  0.29348012  0.09376754  0.24579446     1.49000
C6          C  0.38966021  0.11222096  0.17218885     0.92400
O7          O  0.41722403  0.25136684  0.18545737    -0.81200
O8          O  0.33170103  0.25367728  0.32271195    -0.74700
Al9        Al  0.40794206  0.20444328  0.25400439     1.90100
O10         O  0.34477584  0.26810063  0.20161348    -0.73800
O11         O  0.23659441  0.16193883  0.30540393    -0.73700
O12         O  0.24696430  0.17532382  0.18426335    -0.79300
O13         O  0.24658506  0.08584970  0.31442283    -0.77500
O14         O  0.33152157  0.16974197  0.25056922    -1.13600
O15         O  0.34037647  0.08055648  0.29723521    -0.72800
C16         C  0.38161272  0.10945176  0.33023589     0.97900
C17         C  0.39145290  0.28008107  0.17580052     0.94300
Al18       Al  0.29366725  0.21074728  0.25310906     1.55600
O19         O  0.41922963  0.15468418  0.20340253    -0.77500
C20         C  0.22260858  0.11495833  0.32983947     0.98000
C21         C  0.38443573  0.27781507  0.33226969     0.93300
O22         O  0.41597914  0.26225601  0.30502370    -0.82800
C23         C  0.50484743  0.49719300  0.03505398    -0.02900
C24         C  0.99964066  0.50137245  0.45735650    -0.02900
C25         C  0.50215128  0.07469033  0.10779933    -0.20800
C26         C  0.47194594  0.02941607  0.06669954    -0.07300
C27         C  0.41067732  0.01108683  0.06622606     0.13500
C28         C  0.38775650  0.04279763  0.09608376    -0.20800
C29         C  0.41963148  0.08779902  0.13387466    -0.07300
C30         C  0.47822147  0.10384297  0.13972737     0.13500
C31         C  0.51715435  0.15109813  0.18082409    -0.24200
H32         H  0.04557208  0.08804259  0.11849958     0.14800
H33         H  0.34259154  0.02973457  0.09316387     0.14900
C34         C  0.36477676  0.45531516  0.04282064    -0.24100
H35         H  0.06172818  0.15792286  0.17961883     0.05100
H36         H  0.50177463  0.14075658  0.22778679     0.08300
H37         H  0.51896761  0.19174371  0.16708364     0.08300
H38         H  0.36487443  0.45390249  0.99411416     0.08300
H39         H  0.36644073  0.41898349  0.06391803     0.08300
H40         H  0.32101367  0.44806122  0.05411059     0.05100
C41         C  0.12782446  0.04278404  0.15189310    -0.20800
C42         C  0.16906416  0.09671140  0.13454078    -0.07300
C43         C  0.16212658  0.11776483  0.07983774     0.13500
C44         C  0.11302523  0.08454288  0.04546568    -0.20800
C45         C  0.07051770  0.02752360  0.06098433    -0.07300
C46         C  0.08693974  0.00588495  0.11212813     0.13500
C47         C  0.08301183  0.44778338  0.11440877    -0.24200
H48         H  0.13384687  0.02533452  0.19323171     0.14800
H49         H  0.11093905  0.10481471  0.00555628     0.14900
C50         C  0.20616087  0.17515853  0.05762396    -0.24100
H51         H  0.11886634  0.44745114  0.13910164     0.05100
H52         H  0.08881706  0.43527635  0.06901296     0.08300
H53         H  0.04424509  0.41698489  0.13850731     0.08300
H54         H  0.24826736  0.17613925  0.05316184     0.08300
H55         H  0.20945480  0.20841168  0.08965075     0.08300
H56         H  0.19512528  0.18543834  0.01333142     0.05100
C57         C  0.45240804  0.43234136  0.12543711    -0.20800
C58         C  0.47510081  0.43462350  0.06639392    -0.07300
C59         C  0.47550169  0.38150647  0.04953423     0.13500
C60         C  0.44542413  0.33190814  0.08459038    -0.20800
C61         C  0.41770501  0.33164610  0.13782996    -0.07300
C62         C  0.42057764  0.38272724  0.15795106     0.13500
C63         C  0.39171325  0.38657851  0.21526422    -0.24200
H64         H  0.45981674  0.47032424  0.14903288     0.14800
H65         H  0.44529436  0.29274771  0.07115354     0.14900
C66         C  0.50921274  0.37145098  0.00010814    -0.24100
H67         H  0.40118854  0.43072044  0.22622419     0.05100
H68         H  0.40613732  0.37042503  0.25287618     0.08300
H69         H  0.34475430  0.36135825  0.21123231     0.08300
H70         H  0.03582444  0.40823645  0.97354713     0.08300
H71         H  0.48014576  0.33747077  0.46985443     0.08300
H72         H  0.53754766  0.35576751  0.01907648     0.05100
C73         C  0.43943925  0.10963823  0.41700889    -0.20800
C74         C  0.39979457  0.07907022  0.37351928    -0.07300
C75         C  0.38255332  0.02063401  0.36826966     0.13500
C76         C  0.41222017  0.99761879  0.39888411    -0.20800
C77         C  0.45917142  0.02882948  0.43794777    -0.07300
C78         C  0.46961396  0.08677683  0.44843019     0.13500
C79         C  0.51663431  0.13094828  0.48446998    -0.24200
H80         H  0.45081292  0.15401879  0.42301469     0.14800
H81         H  0.39901790  0.45479416  0.38634050     0.14900
C82         C  0.33507626  0.98142435  0.32747357    -0.24100
H83         H  0.54640672  0.16683440  0.45593802     0.05100
H84         H  0.04090725  0.11402178  0.50574355     0.08300
H85         H  0.49854007  0.14782648  0.01934595     0.08300
H86         H  0.34703749  0.99402291  0.28009028     0.08300
H87         H  0.29489018  0.98237934  0.33966175     0.08300
H88         H  0.32588515  0.43649258  0.33101308     0.05100
C89         C  0.10372280  0.02156284  0.43810392    -0.20800
C90         C  0.06073659  0.03785829  0.42646939    -0.07300
C91         C  0.07795767  0.08454691  0.38417418     0.13500
C92         C  0.13500117  0.11454167  0.36562664    -0.20800
C93         C  0.17294425  0.09261801  0.37176836    -0.07300
C94         C  0.15798062  0.04657697  0.41049679     0.13500
C95         C  0.19879442  0.02377410  0.42381067    -0.24200
H96         H  0.09603690  0.48930315  0.46986927     0.14800
H97         H  0.14705791  0.15096235  0.33665644     0.14900
C98         C  0.04103974  0.09925667  0.34400912    -0.24100
H99         H  0.18170031  0.49055334  0.45901606     0.05100
H100        H  0.23977729  0.05865032  0.43966978     0.08300
H101        H  0.20647074  0.00418146  0.38322820     0.08300
H102        H  0.04356503  0.14045823  0.35682241     0.08300
H103        H  0.99709743  0.06623786  0.33876791     0.08300
H104        H  0.05707212  0.10441959  0.29702086     0.05100
C105        C  0.42111580  0.39533271  0.44711962    -0.20800
C106        C  0.47357826  0.44020947  0.42489874    -0.07300
C107        C  0.49211155  0.42697315  0.36801616     0.13500
C108        C  0.46576342  0.37119153  0.34675918    -0.20800
C109        C  0.41311633  0.33006676  0.36848418    -0.07300
C110        C  0.38981597  0.34245175  0.41915102     0.13500
C111        C  0.33358115  0.29944709  0.44570620    -0.24200
H112        H  0.40309636  0.40106876  0.48687437     0.14800
H113        H  0.48312262  0.36130531  0.30689989     0.14900
C114        C  0.03136562  0.46829938  0.32117734    -0.24100
H115        H  0.32292893  0.31506807  0.48765194     0.05100
H116        H  0.33538604  0.25979805  0.45619338     0.08300
H117        H  0.29880946  0.29005498  0.41370372     0.08300
H118        H  0.07655668  0.48801670  0.33310385     0.08300
H119        H  0.01613977  0.49861374  0.30990402     0.08300
H120        H  0.03056863  0.44792336  0.27749061     0.05100
O121        O  0.40864825  0.16274295  0.82379346    -0.82200
C122        C  0.22131616  0.12315199  0.67181850     0.97100
O123        O  0.23694032  0.09003530  0.69458339    -0.71400
O124        O  0.33577901  0.08945953  0.67640257    -0.75000
Al125      Al  0.29348414  0.09376730  0.74579270     1.49000
C126        C  0.38966769  0.11222655  0.67218771     0.92400
O127        O  0.41722753  0.25137339  0.68546278    -0.81200
O128        O  0.33169952  0.25367852  0.82270969    -0.74700
Al129      Al  0.40794480  0.20444562  0.75400643     1.90100
O130        O  0.34477291  0.26809874  0.70161129    -0.73800
O131        O  0.23659536  0.16193576  0.80540482    -0.73700
O132        O  0.24696301  0.17531895  0.68426264    -0.79300
O133        O  0.24658395  0.08584513  0.81441904    -0.77500
O134        O  0.33152367  0.16974203  0.75056926    -1.13600
O135        O  0.34037879  0.08055727  0.79723571    -0.72800
C136        C  0.38161655  0.10945187  0.83023458     0.97900
C137        C  0.39145262  0.28008338  0.67580214     0.94300
Al138      Al  0.29366645  0.21074502  0.75310810     1.55600
O139        O  0.41923658  0.15469054  0.70340095    -0.77500
C140        C  0.22260846  0.11495413  0.82983834     0.98000
C141        C  0.38443352  0.27781417  0.83227176     0.93300
O142        O  0.41597765  0.26225379  0.80502972    -0.82800
C143        C  0.50484791  0.49719326  0.53505035    -0.02900
C144        C  0.99964024  0.50137163  0.95736064    -0.02900
C145        C  0.50215694  0.07469558  0.60779214    -0.20800
C146        C  0.47194905  0.02941933  0.56669500    -0.07300
C147        C  0.41068058  0.01109122  0.56622333     0.13500
C148        C  0.38776126  0.04280231  0.59608311    -0.20800
C149        C  0.41963843  0.08780535  0.63387140    -0.07300
C150        C  0.47822890  0.10385065  0.63971946     0.13500
C151        C  0.51716444  0.15111021  0.68081009    -0.24200
H152        H  0.04557793  0.08804795  0.61849031     0.14800
H153        H  0.34259632  0.02973901  0.59316616     0.14900
C154        C  0.36477837  0.45532112  0.54281702    -0.24100
H155        H  0.06173906  0.15793747  0.67959987     0.05100
H156        H  0.50178993  0.14077195  0.72777478     0.08300
H157        H  0.51897329  0.19175341  0.66706773     0.08300
H158        H  0.36487488  0.45390958  0.49411073     0.08300
H159        H  0.36644054  0.41898775  0.56391231     0.08300
H160        H  0.32101586  0.44806844  0.55410799     0.05100
C161        C  0.12783142  0.04277700  0.65188450    -0.20800
C162        C  0.16906979  0.09670528  0.63453328    -0.07300
C163        C  0.16213155  0.11775880  0.57983076     0.13500
C164        C  0.11302768  0.08453893  0.54546128    -0.20800
C165        C  0.07051837  0.02752045  0.56098058    -0.07300
C166        C  0.08694202  0.00587971  0.61212195     0.13500
C167        C  0.08300532  0.44777491  0.61440657    -0.24200
H168        H  0.13385521  0.02532692  0.69322167     0.14800
H169        H  0.11094098  0.10481173  0.50555334     0.14900
C170        C  0.20616844  0.17514992  0.55761361    -0.24100
H171        H  0.11885523  0.44743687  0.63910311     0.05100
H172        H  0.08881217  0.43526634  0.56901207     0.08300
H173        H  0.04423600  0.41698062  0.63850416     0.08300
H174        H  0.24827260  0.17612583  0.55314902     0.08300
H175        H  0.20946774  0.20840568  0.58963946     0.08300
H176        H  0.19513198  0.18542967  0.51332146     0.05100
C177        C  0.45240336  0.43234217  0.62543342    -0.20800
C178        C  0.47509778  0.43462376  0.56639083    -0.07300
C179        C  0.47549694  0.38150571  0.54953192     0.13500
C180        C  0.44542061  0.33190849  0.58458995    -0.20800
C181        C  0.41770239  0.33164742  0.63782975    -0.07300
C182        C  0.42057248  0.38272826  0.65794809     0.13500
C183        C  0.39170390  0.38657907  0.71525843    -0.24200
H184        H  0.45981081  0.47032511  0.64902833     0.14800
H185        H  0.44529146  0.29274786  0.57115449     0.14900
C186        C  0.50920731  0.37144895  0.50010616    -0.24100
H187        H  0.40117570  0.43072059  0.72621539     0.05100
H188        H  0.40612714  0.37042820  0.75287353     0.08300
H189        H  0.34474541  0.36135617  0.71122381     0.08300
H190        H  0.03582191  0.40823497  0.47354748     0.08300
H191        H  0.48015188  0.33747136  0.96985725     0.08300
H192        H  0.53753973  0.35576221  0.51907417     0.05100
C193        C  0.43943778  0.10963603  0.91701140    -0.20800
C194        C  0.39979848  0.07906964  0.87351671    -0.07300
C195        C  0.38256140  0.02063449  0.86826234     0.13500
C196        C  0.41222123  0.99761741  0.89888652    -0.20800
C197        C  0.45917091  0.02882827  0.93795184    -0.07300
C198        C  0.46961186  0.08677512  0.94843469     0.13500
C199        C  0.51662886  0.13094634  0.98447816    -0.24200
H200        H  0.45080884  0.15401596  0.92301930     0.14800
H201        H  0.39901489  0.45479066  0.88634948     0.14900
C202        C  0.33509891  0.98142892  0.82744900    -0.24100
H203        H  0.54640194  0.16683441  0.95594898     0.05100
H204        H  0.04090241  0.11402082  0.00575287     0.08300
H205        H  0.49854885  0.14783133  0.51933834     0.08300
H206        H  0.34707228  0.99404042  0.78007042     0.08300
H207        H  0.29490566  0.98237309  0.83962792     0.08300
H208        H  0.32591131  0.43649813  0.83098216     0.05100
C209        C  0.10372374  0.02156217  0.93810882    -0.20800
C210        C  0.06073752  0.03785797  0.92647431    -0.07300
C211        C  0.07796003  0.08454778  0.88418026     0.13500
C212        C  0.13500342  0.11454050  0.86563082    -0.20800
C213        C  0.17294455  0.09261401  0.87176901    -0.07300
C214        C  0.15798036  0.04657319  0.91049797     0.13500
C215        C  0.19879226  0.02376733  0.92380906    -0.24200
H216        H  0.09603841  0.48930410  0.96987628     0.14800
H217        H  0.14706115  0.15096213  0.83666210     0.14900
C218        C  0.04104342  0.09926166  0.84401796    -0.24100
H219        H  0.18169724  0.49054561  0.95901351     0.05100
H220        H  0.23977617  0.05864194  0.93966831     0.08300
H221        H  0.20646707  0.00417526  0.88322522     0.08300
H222        H  0.04357008  0.14046299  0.85683472     0.08300
H223        H  0.99710108  0.06624384  0.83877521     0.08300
H224        H  0.05707553  0.10442714  0.79702942     0.05100
C225        C  0.42111624  0.39532939  0.94712536    -0.20800
C226        C  0.47357721  0.44020809  0.92490259    -0.07300
C227        C  0.49210709  0.42697388  0.86801679     0.13500
C228        C  0.46575690  0.37119351  0.84675598    -0.20800
C229        C  0.41311351  0.33006617  0.86848554    -0.07300
C230        C  0.38981721  0.34244756  0.91915757     0.13500
C231        C  0.33358845  0.29943719  0.94571936    -0.24200
H232        H  0.40309818  0.40106331  0.98688193     0.14800
H233        H  0.48311231  0.36130908  0.80689266     0.14900
C234        C  0.03136212  0.46830172  0.82118003    -0.24100
H235        H  0.32293859  0.31505527  0.98766861     0.05100
H236        H  0.33540151  0.25979153  0.95620253     0.08300
H237        H  0.29881131  0.29003980  0.91372257     0.08300
H238        H  0.07655283  0.48801653  0.83310726     0.08300
H239        H  0.01613773  0.49861775  0.80990938     0.08300
H240        H  0.03056498  0.44792799  0.77749174     0.05100
O241        O  0.40867373  0.66275685  0.32378153    -0.82200
C242        C  0.22132146  0.62316055  0.17182785     0.97100
O243        O  0.23695007  0.59004522  0.19458886    -0.71400
O244        O  0.33578515  0.58945929  0.17641418    -0.75000
Al245      Al  0.29349205  0.59377635  0.24580142     1.49000
C246        C  0.38967339  0.61223347  0.17218651     0.92400
O247        O  0.41722688  0.75138179  0.18545739    -0.81200
O248        O  0.33171152  0.75368195  0.32271891    -0.74700
Al249      Al  0.40795528  0.70445721  0.25399820     1.90100
O250        O  0.34477817  0.76811244  0.20162153    -0.73800
O251        O  0.23660179  0.66194415  0.30541580    -0.73700
O252        O  0.24696548  0.67532759  0.18427443    -0.79300
O253        O  0.24659002  0.58585408  0.31442576    -0.77500
O254        O  0.33153223  0.66975117  0.25057285    -1.13600
O255        O  0.34038547  0.58057246  0.29724914    -0.72800
C256        C  0.38163218  0.60946760  0.33023673     0.97900
C257        C  0.39145435  0.78009486  0.17580506     0.94300
Al258      Al  0.29367376  0.71075377  0.25311823     1.55600
O259        O  0.41924384  0.65470599  0.20338697    -0.77500
C260        C  0.22261171  0.61496001  0.32984443     0.98000
C261        C  0.38444680  0.77782051  0.33227315     0.93300
O262        O  0.41599040  0.76226359  0.30502410    -0.82800
C263        C  0.50484926  0.99719974  0.03504839    -0.02900
C264        C  0.99964391  0.00137591  0.45735187    -0.02900
C265        C  0.50215690  0.57468917  0.10780451    -0.20800
C266        C  0.47194918  0.52941461  0.06670523    -0.07300
C267        C  0.41068180  0.51109157  0.06622884     0.13500
C268        C  0.38776536  0.54280806  0.09608256    -0.20800
C269        C  0.41964279  0.58781027  0.13387143    -0.07300
C270        C  0.47823172  0.60385064  0.13972479     0.13500
C271        C  0.51716796  0.65111224  0.18081310    -0.24200
H272        H  0.04557603  0.58803694  0.11850826     0.14800
H273        H  0.34260144  0.52974926  0.09316101     0.14900
C274        C  0.36477649  0.95530973  0.04281588    -0.24100
H275        H  0.06174079  0.65793394  0.17960922     0.05100
H276        H  0.50178978  0.64078052  0.22777725     0.08300
H277        H  0.51898309  0.69175625  0.16706281     0.08300
H278        H  0.36487593  0.95390038  0.99410873     0.08300
H279        H  0.36644595  0.91898068  0.06391371     0.08300
H280        H  0.32101160  0.94805076  0.05410581     0.05100
C281        C  0.12783714  0.54278290  0.15190222    -0.20800
C282        C  0.16907178  0.59670995  0.13454600    -0.07300
C283        C  0.16212673  0.61775817  0.07984372     0.13500
C284        C  0.11302525  0.58452963  0.04547314    -0.20800
C285        C  0.07051589  0.52751156  0.06099623    -0.07300
C286        C  0.08693621  0.50588034  0.11215137     0.13500
C287        C  0.08307357  0.94781102  0.11432721    -0.24200
H288        H  0.13386251  0.52534224  0.19324557     0.14800
H289        H  0.11093803  0.60479808  0.00556179     0.14900
C290        C  0.20615307  0.67515556  0.05763053    -0.24100
H291        H  0.11895133  0.94750059  0.13899477     0.05100
H292        H  0.08888302  0.93534236  0.06891392     0.08300
H293        H  0.04432111  0.91697587  0.13841912     0.08300
H294        H  0.24826343  0.67614506  0.05316718     0.08300
H295        H  0.20944093  0.70840544  0.08965887     0.08300
H296        H  0.19511331  0.68543310  0.01333906     0.05100
C297        C  0.45242837  0.93235664  0.12544299    -0.20800
C298        C  0.47510996  0.93463293  0.06639554    -0.07300
C299        C  0.47550547  0.88151358  0.04953740     0.13500
C300        C  0.44542353  0.83191691  0.08459411    -0.20800
C301        C  0.41770579  0.83165886  0.13783329    -0.07300
C302        C  0.42058791  0.88274346  0.15795508     0.13500
C303        C  0.39171849  0.88659767  0.21526309    -0.24200
H304        H  0.45984609  0.97034250  0.14903847     0.14800
H305        H  0.44528920  0.79275419  0.07115810     0.14900
C306        C  0.50921618  0.87145342  0.00011475    -0.24100
H307        H  0.40119462  0.93074077  0.22621860     0.05100
H308        H  0.40613647  0.87044375  0.25288030     0.08300
H309        H  0.34475986  0.86137917  0.21122505     0.08300
H310        H  0.03582980  0.90823677  0.97355134     0.08300
H311        H  0.48014848  0.83747153  0.46986202     0.08300
H312        H  0.53754916  0.85577008  0.01908895     0.05100
C313        C  0.43945576  0.60965113  0.41701253    -0.20800
C314        C  0.39980935  0.57908504  0.37352375    -0.07300
C315        C  0.38255731  0.52064613  0.36828059     0.13500
C316        C  0.41221711  0.49762514  0.39889814    -0.20800
C317        C  0.45917282  0.52883312  0.43795681    -0.07300
C318        C  0.46962399  0.58678383  0.44843678     0.13500
C319        C  0.51664697  0.63095227  0.48447619    -0.24200
H320        H  0.45083611  0.65403376  0.42301495     0.14800
H321        H  0.39903151  0.95479115  0.38631830     0.14900
C322        C  0.33507638  0.48143851  0.32748720    -0.24100
H323        H  0.54642316  0.66683532  0.45594329     0.05100
H324        H  0.04091558  0.61402160  0.50575245     0.08300
H325        H  0.49855694  0.64783582  0.01934984     0.08300
H326        H  0.34703722  0.49403404  0.28010313     0.08300
H327        H  0.29489347  0.48239970  0.33967612     0.08300
H328        H  0.32589089  0.93647992  0.33099755     0.05100
C329        C  0.10371826  0.52155757  0.43810428    -0.20800
C330        C  0.06073229  0.53785314  0.42647058    -0.07300
C331        C  0.07795164  0.58453842  0.38417059     0.13500
C332        C  0.13499434  0.61453144  0.36561837    -0.20800
C333        C  0.17294025  0.59261191  0.37176586    -0.07300
C334        C  0.15797475  0.54656928  0.41049327     0.13500
C335        C  0.19878422  0.52375994  0.42380099    -0.24200
H336        H  0.09603933  0.98930499  0.46986534     0.14800
H337        H  0.14704950  0.65094879  0.33664381     0.14900
C338        C  0.04103193  0.59924704  0.34400679    -0.24100
H339        H  0.18171295  0.99057134  0.45902984     0.05100
H340        H  0.23976868  0.55863203  0.43966214     0.08300
H341        H  0.20645768  0.50416988  0.38321470     0.08300
H342        H  0.04355862  0.64044941  0.35681922     0.08300
H343        H  0.99708931  0.56622779  0.33876880     0.08300
H344        H  0.05706122  0.60440802  0.29701753     0.05100
C345        C  0.42112524  0.89533804  0.44711900    -0.20800
C346        C  0.47358741  0.94021344  0.42489822    -0.07300
C347        C  0.49212135  0.92697805  0.36801622     0.13500
C348        C  0.46577392  0.87119650  0.34675984    -0.20800
C349        C  0.41312729  0.83007161  0.36848659    -0.07300
C350        C  0.38982462  0.84245829  0.41915029     0.13500
C351        C  0.33358347  0.79945982  0.44569904    -0.24200
H352        H  0.40310656  0.90107500  0.48687279     0.14800
H353        H  0.48313254  0.86131104  0.30689981     0.14900
C354        C  0.03137421  0.96830562  0.32117774    -0.24100
H355        H  0.32292899  0.81508426  0.48764117     0.05100
H356        H  0.33537932  0.75980708  0.45619034     0.08300
H357        H  0.29881750  0.79007383  0.41369088     0.08300
H358        H  0.07656566  0.98802208  0.33310297     0.08300
H359        H  0.01614880  0.99862140  0.30990842     0.08300
H360        H  0.03057499  0.94793075  0.27748978     0.05100
O361        O  0.40867822  0.66275695  0.82378064    -0.82200
C362        C  0.22132572  0.62315693  0.67182304     0.97100
O363        O  0.23695703  0.59004359  0.69458312    -0.71400
O364        O  0.33579303  0.58946250  0.67641510    -0.75000
Al365      Al  0.29349626  0.59377630  0.74579977     1.49000
C366        C  0.38968109  0.61223912  0.67218565     0.92400
O367        O  0.41723065  0.75138854  0.68546308    -0.81200
O368        O  0.33171050  0.75368331  0.82271715    -0.74700
Al369      Al  0.40795831  0.70445972  0.75400044     1.90100
O370        O  0.34477556  0.76811081  0.70161975    -0.73800
O371        O  0.23660301  0.66194118  0.80541708    -0.73700
O372        O  0.24696427  0.67532317  0.68427418    -0.79300
O373        O  0.24658884  0.58584941  0.81442186    -0.77500
O374        O  0.33153458  0.66975143  0.75057314    -1.13600
O375        O  0.34038779  0.58057343  0.79725000    -0.72800
C376        C  0.38163610  0.60946791  0.83023572     0.97900
C377        C  0.39145427  0.78009739  0.67580704     0.94300
Al378      Al  0.29367324  0.71075174  0.75311771     1.55600
O379        O  0.41925101  0.65471251  0.70338552    -0.77500
C380        C  0.22261153  0.61495573  0.82984332     0.98000
C381        C  0.38444505  0.77781972  0.83227566     0.93300
O382        O  0.41598937  0.76226154  0.80503045    -0.82800
C383        C  0.50484953  0.99719990  0.53504452    -0.02900
C384        C  0.99964380  0.00137519  0.95735621    -0.02900
C385        C  0.50216266  0.57469422  0.60779788    -0.20800
C386        C  0.47195259  0.52941799  0.56670097    -0.07300
C387        C  0.41068532  0.51109628  0.56622621     0.13500
C388        C  0.38777053  0.54281305  0.59608206    -0.20800
C389        C  0.41964997  0.58781661  0.63386856    -0.07300
C390        C  0.47823937  0.60385807  0.63971755     0.13500
C391        C  0.51717808  0.65112364  0.68080026    -0.24200
H392        H  0.04558215  0.58804191  0.61849978     0.14800
H393        H  0.34260645  0.52975410  0.59316333     0.14900
C394        C  0.36477780  0.95531521  0.54281239    -0.24100
H395        H  0.06175178  0.65794766  0.67959144     0.05100
H396        H  0.50180473  0.64079498  0.72776619     0.08300
H397        H  0.51898919  0.69176552  0.66704824     0.08300
H398        H  0.36487580  0.95390689  0.49410526     0.08300
H399        H  0.36644571  0.91898450  0.56390788     0.08300
H400        H  0.32101359  0.94805739  0.55410346     0.05100
C401        C  0.12784438  0.54277640  0.65189378    -0.20800
C402        C  0.16907774  0.59670426  0.63453858    -0.07300
C403        C  0.16213191  0.61775247  0.57983680     0.13500
C404        C  0.11302781  0.58452592  0.54546901    -0.20800
C405        C  0.07051673  0.52750865  0.56099272    -0.07300
C406        C  0.08693868  0.50587550  0.61214563     0.13500
C407        C  0.08306696  0.94780214  0.61432422    -0.24200
H408        H  0.13387121  0.52533526  0.69323596     0.14800
H409        H  0.11093992  0.60479542  0.50555901     0.14900
C410        C  0.20616093  0.67514722  0.55762012    -0.24100
H411        H  0.11894027  0.94748591  0.63899498     0.05100
H412        H  0.08887766  0.93533193  0.56891216     0.08300
H413        H  0.04431197  0.91697103  0.63841540     0.08300
H414        H  0.24826898  0.67613183  0.55315439     0.08300
H415        H  0.20945433  0.70839980  0.58964746     0.08300
H416        H  0.19512043  0.68542466  0.51332900     0.05100
C417        C  0.45242409  0.93235773  0.62543947    -0.20800
C418        C  0.47510671  0.93463313  0.56639233    -0.07300
C419        C  0.47550017  0.88151269  0.54953490     0.13500
C420        C  0.44541965  0.83191717  0.58459370    -0.20800
C421        C  0.41770337  0.83166040  0.63783336    -0.07300
C422        C  0.42058331  0.88274477  0.65795248     0.13500
C423        C  0.39171002  0.88659858  0.71525779    -0.24200
H424        H  0.45984086  0.97034369  0.64903398     0.14800
H425        H  0.44528572  0.79275428  0.57115915     0.14900
C426        C  0.50920983  0.87145093  0.50011244    -0.24100
H427        H  0.40118273  0.93074125  0.72621033     0.05100
H428        H  0.40612729  0.87044715  0.75287797     0.08300
H429        H  0.34475185  0.86137735  0.71121713     0.08300
H430        H  0.03582668  0.90823501  0.47355121     0.08300
H431        H  0.48015576  0.83747252  0.96986508     0.08300
H432        H  0.53754012  0.85576412  0.51908620     0.05100
C433        C  0.43945491  0.60964947  0.91701486    -0.20800
C434        C  0.39981320  0.57908468  0.87352160    -0.07300
C435        C  0.38256448  0.52064665  0.86827455     0.13500
C436        C  0.41221756  0.49762392  0.89890125    -0.20800
C437        C  0.45917219  0.52883197  0.93796093    -0.07300
C438        C  0.46962223  0.58678235  0.94844106     0.13500
C439        C  0.51664227  0.63095049  0.98448389    -0.24200
H440        H  0.45083311  0.65403134  0.92301891     0.14800
H441        H  0.39902954  0.95478795  0.88632651     0.14900
C442        C  0.33509679  0.48144293  0.82746541    -0.24100
H443        H  0.54641924  0.66683524  0.95595331     0.05100
H444        H  0.04091083  0.61402053  0.00576114     0.08300
H445        H  0.49856472  0.64783991  0.51934296     0.08300
H446        H  0.34706895  0.49405015  0.78008564     0.08300
H447        H  0.29490755  0.48239475  0.83964552     0.08300
H448        H  0.32592031  0.93648586  0.83096273     0.05100
C449        C  0.10371880  0.52155661  0.93810869    -0.20800
C450        C  0.06073286  0.53785247  0.92647523    -0.07300
C451        C  0.07795369  0.58453891  0.88417627     0.13500
C452        C  0.13499630  0.61452996  0.86562225    -0.20800
C453        C  0.17294029  0.59260762  0.87176627    -0.07300
C454        C  0.15797407  0.54656514  0.91049426     0.13500
C455        C  0.19878185  0.52375317  0.92379939    -0.24200
H456        H  0.09604151  0.98930673  0.96987245     0.14800
H457        H  0.14705251  0.65094822  0.83664921     0.14900
C458        C  0.04103527  0.59925154  0.84401516    -0.24100
H459        H  0.18171007  0.99056359  0.95902710     0.05100
H460        H  0.23976716  0.55862380  0.93966065     0.08300
H461        H  0.20645386  0.50416366  0.88321185     0.08300
H462        H  0.04356369  0.64045395  0.85683065     0.08300
H463        H  0.99709246  0.56623359  0.83877614     0.08300
H464        H  0.05706407  0.60441448  0.79702555     0.05100
C465        C  0.42112606  0.89533478  0.94712506    -0.20800
C466        C  0.47358678  0.94021215  0.92490247    -0.07300
C467        C  0.49211737  0.92697893  0.86801720     0.13500
C468        C  0.46576777  0.87119870  0.84675695    -0.20800
C469        C  0.41312500  0.83007116  0.86848829    -0.07300
C470        C  0.38982638  0.84245409  0.91915730     0.13500
C471        C  0.33359154  0.79944964  0.94571288    -0.24200
H472        H  0.40310854  0.90106964  0.98688072     0.14800
H473        H  0.48312259  0.86131504  0.80689266     0.14900
C474        C  0.03137147  0.96830821  0.82118094    -0.24100
H475        H  0.32293937  0.81507099  0.98765845     0.05100
H476        H  0.33539608  0.75980047  0.95620015     0.08300
H477        H  0.29881989  0.79005789  0.91371049     0.08300
H478        H  0.07656259  0.98802195  0.83310704     0.08300
H479        H  0.01614790  0.99862590  0.80991434     0.08300
H480        H  0.03057218  0.94793576  0.77749139     0.05100
O481        O  0.90864403  0.16274299  0.32379444    -0.82200
C482        C  0.72131223  0.12315605  0.17182343     0.97100
O483        O  0.73693386  0.09003749  0.19458899    -0.71400
O484        O  0.83577134  0.08945635  0.17640192    -0.75000
Al485      Al  0.79348011  0.09376755  0.24579447     1.49000
C486        C  0.88966016  0.11222097  0.17218884     0.92400
O487        O  0.91722399  0.25136684  0.18545738    -0.81200
O488        O  0.83170091  0.25367727  0.32271199    -0.74700
Al489      Al  0.90794202  0.20444328  0.25400438     1.90100
O490        O  0.84477580  0.26810064  0.20161346    -0.73800
O491        O  0.73659428  0.16193882  0.30540385    -0.73700
O492        O  0.74696430  0.17532383  0.18426334    -0.79300
O493        O  0.74658505  0.08584976  0.31442287    -0.77500
O494        O  0.83152153  0.16974197  0.25056922    -1.13600
O495        O  0.84037650  0.08055649  0.29723518    -0.72800
C496        C  0.88161271  0.10945176  0.33023587     0.97900
C497        C  0.89145285  0.28008108  0.17580053     0.94300
Al498      Al  0.79366719  0.21074728  0.25310905     1.55600
O499        O  0.91922958  0.15468418  0.20340250    -0.77500
C500        C  0.72260852  0.11495831  0.32983944     0.98000
C501        C  0.88443567  0.27781508  0.33226967     0.93300
O502        O  0.91597902  0.26225600  0.30502366    -0.82800
C503        C  0.00484742  0.49719300  0.03505398    -0.02900
C504        C  0.49964068  0.50137244  0.45735651    -0.02900
C505        C  0.00215117  0.07469030  0.10779931    -0.20800
C506        C  0.97194583  0.02941605  0.06669951    -0.07300
C507        C  0.91067724  0.01108677  0.06622606     0.13500
C508        C  0.88775630  0.04279750  0.09608384    -0.20800
C509        C  0.91963139  0.08779898  0.13387466    -0.07300
C510        C  0.97822136  0.10384295  0.13972736     0.13500
C511        C  0.01715427  0.15109811  0.18082406    -0.24200
H512        H  0.54557221  0.08804263  0.11849960     0.14800
H513        H  0.84259146  0.02973440  0.09316407     0.14900
C514        C  0.86477676  0.45531517  0.04282064    -0.24100
H515        H  0.56172827  0.15792289  0.17961887     0.05100
H516        H  0.00177457  0.14075659  0.22778678     0.08300
H517        H  0.01896755  0.19174370  0.16708363     0.08300
H518        H  0.86487444  0.45390249  0.99411416     0.08300
H519        H  0.86644070  0.41898349  0.06391804     0.08300
H520        H  0.82101368  0.44806123  0.05411058     0.05100
C521        C  0.62782453  0.04278402  0.15189313    -0.20800
C522        C  0.66906420  0.09671140  0.13454082    -0.07300
C523        C  0.66212664  0.11776482  0.07983775     0.13500
C524        C  0.61302530  0.08454286  0.04546574    -0.20800
C525        C  0.57051777  0.02752359  0.06098435    -0.07300
C526        C  0.58693981  0.00588494  0.11212817     0.13500
C527        C  0.58301188  0.44778337  0.11440874    -0.24200
H528        H  0.63384696  0.02533451  0.19323175     0.14800
H529        H  0.61093905  0.10481473  0.00555624     0.14900
C530        C  0.70616095  0.17515853  0.05762396    -0.24100
H531        H  0.61886639  0.44745114  0.13910162     0.05100
H532        H  0.58881713  0.43527637  0.06901293     0.08300
H533        H  0.54424514  0.41698486  0.13850727     0.08300
H534        H  0.74826743  0.17613925  0.05316184     0.08300
H535        H  0.70945487  0.20841168  0.08965074     0.08300
H536        H  0.69512535  0.18543833  0.01333142     0.05100
C537        C  0.95240790  0.43234131  0.12543704    -0.20800
C538        C  0.97510077  0.43462351  0.06639391    -0.07300
C539        C  0.97550169  0.38150647  0.04953424     0.13500
C540        C  0.94542415  0.33190819  0.08459042    -0.20800
C541        C  0.91770500  0.33164610  0.13782996    -0.07300
C542        C  0.92057752  0.38272723  0.15795101     0.13500
C543        C  0.89171325  0.38657850  0.21526425    -0.24200
H544        H  0.95981654  0.47032423  0.14903284     0.14800
H545        H  0.94529438  0.29274768  0.07115353     0.14900
C546        C  0.00921267  0.37145096  0.00010813    -0.24100
H547        H  0.90118857  0.43072044  0.22622427     0.05100
H548        H  0.90613745  0.37042504  0.25287612     0.08300
H549        H  0.84475429  0.36135824  0.21123252     0.08300
H550        H  0.53582453  0.40823642  0.97354728     0.08300
H551        H  0.98014576  0.33747076  0.46985444     0.08300
H552        H  0.03754767  0.35576756  0.01907637     0.05100
C553        C  0.93943917  0.10963824  0.41700891    -0.20800
C554        C  0.89979451  0.07907020  0.37351931    -0.07300
C555        C  0.88255330  0.02063401  0.36826964     0.13500
C556        C  0.91222018  0.99761879  0.39888409    -0.20800
C557        C  0.95917139  0.02882948  0.43794777    -0.07300
C558        C  0.96961388  0.08677680  0.44843022     0.13500
C559        C  0.01663418  0.13094830  0.48446998    -0.24200
H560        H  0.95081285  0.15401875  0.42301463     0.14800
H561        H  0.89901779  0.45479406  0.38634049     0.14900
C562        C  0.83507630  0.98142433  0.32747352    -0.24100
H563        H  0.04640658  0.16683437  0.45593800     0.05100
H564        H  0.54090731  0.11402181  0.50574354     0.08300
H565        H  0.99853999  0.14782644  0.01934600     0.08300
H566        H  0.84703758  0.99402291  0.28009024     0.08300
H567        H  0.79489019  0.98237927  0.33966175     0.08300
H568        H  0.82588491  0.43649256  0.33101313     0.05100
C569        C  0.60372276  0.02156284  0.43810393    -0.20800
C570        C  0.56073656  0.03785827  0.42646939    -0.07300
C571        C  0.57795763  0.08454690  0.38417418     0.13500
C572        C  0.63500113  0.11454166  0.36562668    -0.20800
C573        C  0.67294418  0.09261802  0.37176835    -0.07300
C574        C  0.65798057  0.04657697  0.41049680     0.13500
C575        C  0.69879435  0.02377410  0.42381066    -0.24200
H576        H  0.59603699  0.48930309  0.46986932     0.14800
H577        H  0.64705787  0.15096240  0.33665647     0.14900
C578        C  0.54103973  0.09925665  0.34400908    -0.24100
H579        H  0.68170040  0.49055338  0.45901606     0.05100
H580        H  0.73977719  0.05865029  0.43966979     0.08300
H581        H  0.70647063  0.00418144  0.38322819     0.08300
H582        H  0.54356508  0.14045825  0.35682235     0.08300
H583        H  0.49709743  0.06623787  0.33876787     0.08300
H584        H  0.55707213  0.10441955  0.29702083     0.05100
C585        C  0.92111581  0.39533271  0.44711963    -0.20800
C586        C  0.97357823  0.44020948  0.42489873    -0.07300
C587        C  0.99211148  0.42697317  0.36801613     0.13500
C588        C  0.96576341  0.37119152  0.34675919    -0.20800
C589        C  0.91311630  0.33006675  0.36848420    -0.07300
C590        C  0.88981600  0.34245174  0.41915106     0.13500
C591        C  0.83358116  0.29944710  0.44570620    -0.24200
H592        H  0.90309633  0.40106878  0.48687439     0.14800
H593        H  0.98312264  0.36130529  0.30689993     0.14900
C594        C  0.53136571  0.46829935  0.32117736    -0.24100
H595        H  0.82292899  0.31506807  0.48765199     0.05100
H596        H  0.83538602  0.25979799  0.45619331     0.08300
H597        H  0.79880953  0.29005511  0.41370376     0.08300
H598        H  0.57655678  0.48801671  0.33310381     0.08300
H599        H  0.51613982  0.49861368  0.30990403     0.08300
H600        H  0.53056870  0.44792334  0.27749062     0.05100
O601        O  0.90864834  0.16274296  0.82379346    -0.82200
C602        C  0.72131612  0.12315200  0.67181855     0.97100
O603        O  0.73694031  0.09003531  0.69458339    -0.71400
O604        O  0.83577905  0.08945953  0.67640258    -0.75000
Al605      Al  0.79348417  0.09376732  0.74579271     1.49000
C606        C  0.88966774  0.11222656  0.67218771     0.92400
O607        O  0.91722755  0.25137339  0.68546281    -0.81200
O608        O  0.83169955  0.25367848  0.82270967    -0.74700
Al609      Al  0.90794485  0.20444563  0.75400644     1.90100
O610        O  0.84477292  0.26809874  0.70161126    -0.73800
O611        O  0.73659531  0.16193576  0.80540476    -0.73700
O612        O  0.74696302  0.17531896  0.68426265    -0.79300
O613        O  0.74658399  0.08584520  0.81441909    -0.77500
O614        O  0.83152370  0.16974203  0.75056926    -1.13600
O615        O  0.84037887  0.08055729  0.79723570    -0.72800
C616        C  0.88161663  0.10945188  0.83023457     0.97900
C617        C  0.89145261  0.28008337  0.67580214     0.94300
Al618      Al  0.79366645  0.21074501  0.75310807     1.55600
O619        O  0.91923663  0.15469054  0.70340095    -0.77500
C620        C  0.72260844  0.11495415  0.82983832     0.98000
C621        C  0.88443350  0.27781411  0.83227177     0.93300
O622        O  0.91597769  0.26225378  0.80502972    -0.82800
C623        C  0.00484789  0.49719327  0.53505036    -0.02900
C624        C  0.49964031  0.50137164  0.95736065    -0.02900
C625        C  0.00215694  0.07469559  0.60779214    -0.20800
C626        C  0.97194905  0.02941933  0.56669500    -0.07300
C627        C  0.91068055  0.01109121  0.56622333     0.13500
C628        C  0.88776133  0.04280233  0.59608310    -0.20800
C629        C  0.91963841  0.08780534  0.63387139    -0.07300
C630        C  0.97822890  0.10385064  0.63971946     0.13500
C631        C  0.01716442  0.15111017  0.68081014    -0.24200
H632        H  0.54557796  0.08804795  0.61849031     0.14800
H633        H  0.84259617  0.02973896  0.59316613     0.14900
C634        C  0.86477830  0.45532112  0.54281701    -0.24100
H635        H  0.56173910  0.15793747  0.67959984     0.05100
H636        H  0.00178991  0.14077188  0.72777479     0.08300
H637        H  0.01897325  0.19175341  0.66706783     0.08300
H638        H  0.86487478  0.45390958  0.49411073     0.08300
H639        H  0.86644040  0.41898775  0.56391229     0.08300
H640        H  0.82101576  0.44806850  0.55410798     0.05100
C641        C  0.62783133  0.04277704  0.65188452    -0.20800
C642        C  0.66906972  0.09670529  0.63453342    -0.07300
C643        C  0.66213156  0.11775878  0.57983081     0.13500
C644        C  0.61302773  0.08453891  0.54546127    -0.20800
C645        C  0.57051839  0.02752044  0.56098060    -0.07300
C646        C  0.58694204  0.00587970  0.61212202     0.13500
C647        C  0.58300519  0.44777490  0.61440664    -0.24200
H648        H  0.63385516  0.02532685  0.69322194     0.14800
H649        H  0.61094110  0.10481166  0.50555337     0.14900
C650        C  0.70616847  0.17514990  0.55761361    -0.24100
H651        H  0.61885505  0.44743682  0.63910311     0.05100
H652        H  0.58881195  0.43526625  0.56901212     0.08300
H653        H  0.54423586  0.41698069  0.63850431     0.08300
H654        H  0.74827262  0.17612579  0.55314895     0.08300
H655        H  0.70946782  0.20840566  0.58963951     0.08300
H656        H  0.69513201  0.18542969  0.51332150     0.05100
C657        C  0.95240339  0.43234218  0.62543343    -0.20800
C658        C  0.97509777  0.43462375  0.56639082    -0.07300
C659        C  0.97549696  0.38150573  0.54953193     0.13500
C660        C  0.94542067  0.33190850  0.58458997    -0.20800
C661        C  0.91770244  0.33164742  0.63782976    -0.07300
C662        C  0.92057254  0.38272826  0.65794811     0.13500
C663        C  0.89170398  0.38657907  0.71525845    -0.24200
H664        H  0.95981087  0.47032510  0.64902834     0.14800
H665        H  0.94529156  0.29274789  0.57115452     0.14900
C666        C  0.00920735  0.37144898  0.50010617    -0.24100
H667        H  0.90117578  0.43072059  0.72621541     0.05100
H668        H  0.90612721  0.37042819  0.75287354     0.08300
H669        H  0.84474549  0.36135618  0.71122382     0.08300
H670        H  0.53582196  0.40823499  0.47354751     0.08300
H671        H  0.98015178  0.33747133  0.96985729     0.08300
H672        H  0.03753974  0.35576224  0.51907417     0.05100
C673        C  0.93943779  0.10963602  0.91701143    -0.20800
C674        C  0.89979853  0.07906963  0.87351669    -0.07300
C675        C  0.88256141  0.02063449  0.86826232     0.13500
C676        C  0.91222125  0.99761738  0.89888648    -0.20800
C677        C  0.95917094  0.02882826  0.93795180    -0.07300
C678        C  0.96961187  0.08677510  0.94843468     0.13500
C679        C  0.01662889  0.13094632  0.98447821    -0.24200
H680        H  0.95080877  0.15401588  0.92301940     0.14800
H681        H  0.89901494  0.45479074  0.88634941     0.14900
C682        C  0.83509883  0.98142893  0.82744907    -0.24100
H683        H  0.04640192  0.16683448  0.95594900     0.05100
H684        H  0.54090252  0.11402071  0.00575293     0.08300
H685        H  0.99854878  0.14783133  0.51933836     0.08300
H686        H  0.84707208  0.99404034  0.78007047     0.08300
H687        H  0.79490561  0.98237324  0.83962803     0.08300
H688        H  0.82591138  0.43649813  0.83098214     0.05100
C689        C  0.60372372  0.02156224  0.93810882    -0.20800
C690        C  0.56073750  0.03785799  0.92647432    -0.07300
C691        C  0.57796000  0.08454779  0.88418025     0.13500
C692        C  0.63500339  0.11454052  0.86563081    -0.20800
C693        C  0.67294453  0.09261408  0.87176901    -0.07300
C694        C  0.65798034  0.04657328  0.91049803     0.13500
C695        C  0.69879219  0.02376739  0.92380905    -0.24200
H696        H  0.59603858  0.48930439  0.96987625     0.14800
H697        H  0.64706113  0.15096217  0.83666207     0.14900
C698        C  0.54104339  0.09926163  0.84401796    -0.24100
H699        H  0.68169730  0.49054566  0.95901351     0.05100
H700        H  0.73977608  0.05864195  0.93966831     0.08300
H701        H  0.70646684  0.00417529  0.88322516     0.08300
H702        H  0.54357010  0.14046300  0.85683470     0.08300
H703        H  0.49710107  0.06624385  0.83877525     0.08300
H704        H  0.55707549  0.10442707  0.79702940     0.05100
C705        C  0.92111616  0.39532935  0.94712529    -0.20800
C706        C  0.97357707  0.44020807  0.92490261    -0.07300
C707        C  0.99210694  0.42697388  0.86801676     0.13500
C708        C  0.96575682  0.37119349  0.84675603    -0.20800
C709        C  0.91311350  0.33006613  0.86848555    -0.07300
C710        C  0.88981713  0.34244751  0.91915759     0.13500
C711        C  0.83358843  0.29943711  0.94571939    -0.24200
H712        H  0.90309801  0.40106324  0.98688212     0.14800
H713        H  0.98311231  0.36130903  0.80689272     0.14900
C714        C  0.53136225  0.46830173  0.82118002    -0.24100
H715        H  0.82293857  0.31505519  0.98766865     0.05100
H716        H  0.83540155  0.25979148  0.95620257     0.08300
H717        H  0.79881129  0.29003970  0.91372261     0.08300
H718        H  0.57655297  0.48801660  0.83310724     0.08300
H719        H  0.51613779  0.49861771  0.80990939     0.08300
H720        H  0.53056513  0.44792805  0.77749173     0.05100
O721        O  0.90867380  0.66275686  0.32378150    -0.82200
C722        C  0.72132146  0.62316056  0.17182786     0.97100
O723        O  0.73695013  0.59004526  0.19458884    -0.71400
O724        O  0.83578512  0.58945930  0.17641414    -0.75000
Al725      Al  0.79349208  0.59377637  0.24580141     1.49000
C726        C  0.88967330  0.61223345  0.17218649     0.92400
O727        O  0.91722687  0.75138183  0.18545741    -0.81200
O728        O  0.83171152  0.75368196  0.32271889    -0.74700
Al729      Al  0.90795529  0.70445723  0.25399818     1.90100
O730        O  0.84477812  0.76811241  0.20162149    -0.73800
O731        O  0.73660183  0.66194415  0.30541583    -0.73700
O732        O  0.74696538  0.67532757  0.18427451    -0.79300
O733        O  0.74659008  0.58585409  0.31442578    -0.77500
O734        O  0.83153224  0.66975119  0.25057285    -1.13600
O735        O  0.84038553  0.58057249  0.29724910    -0.72800
C736        C  0.88163224  0.60946761  0.33023671     0.97900
C737        C  0.89145426  0.78009486  0.17580505     0.94300
Al738      Al  0.79367374  0.71075377  0.25311825     1.55600
O739        O  0.91924381  0.65470601  0.20338694    -0.77500
C740        C  0.72261175  0.61496000  0.32984445     0.98000
C741        C  0.88444687  0.77782053  0.33227313     0.93300
O742        O  0.91599040  0.76226359  0.30502412    -0.82800
C743        C  0.00484920  0.99719974  0.03504836    -0.02900
C744        C  0.49964390  0.00137589  0.45735187    -0.02900
C745        C  0.00215700  0.57468920  0.10780453    -0.20800
C746        C  0.97194913  0.52941461  0.06670521    -0.07300
C747        C  0.91068183  0.51109159  0.06622884     0.13500
C748        C  0.88776531  0.54280805  0.09608256    -0.20800
C749        C  0.91964280  0.58781028  0.13387145    -0.07300
C750        C  0.97823165  0.60385063  0.13972480     0.13500
C751        C  0.01716797  0.65111221  0.18081313    -0.24200
H752        H  0.54557624  0.58803701  0.11850827     0.14800
H753        H  0.84260148  0.52974926  0.09316103     0.14900
C754        C  0.86477645  0.95530967  0.04281585    -0.24100
H755        H  0.56174089  0.65793405  0.17960904     0.05100
H756        H  0.00178965  0.64078054  0.22777726     0.08300
H757        H  0.01898316  0.69175627  0.16706274     0.08300
H758        H  0.86487596  0.95390035  0.99410869     0.08300
H759        H  0.86644600  0.91898065  0.06391369     0.08300
H760        H  0.82101154  0.94805060  0.05410573     0.05100
C761        C  0.62783720  0.54278288  0.15190220    -0.20800
C762        C  0.66907182  0.59670992  0.13454597    -0.07300
C763        C  0.66212677  0.61775816  0.07984371     0.13500
C764        C  0.61302526  0.58452962  0.04547318    -0.20800
C765        C  0.57051591  0.52751157  0.06099627    -0.07300
C766        C  0.58693623  0.50588032  0.11215137     0.13500
C767        C  0.58307365  0.94781101  0.11432722    -0.24200
H768        H  0.63386258  0.52534222  0.19324554     0.14800
H769        H  0.61093804  0.60479810  0.00556178     0.14900
C770        C  0.70615305  0.67515558  0.05763053    -0.24100
H771        H  0.61895140  0.94750056  0.13899478     0.05100
H772        H  0.58888308  0.93534238  0.06891391     0.08300
H773        H  0.54432117  0.91697585  0.13841909     0.08300
H774        H  0.74826351  0.67614516  0.05316716     0.08300
H775        H  0.70944090  0.70840540  0.08965889     0.08300
H776        H  0.69511330  0.68543311  0.01333909     0.05100
C777        C  0.95242839  0.93235666  0.12544300    -0.20800
C778        C  0.97510991  0.93463293  0.06639552    -0.07300
C779        C  0.97550544  0.88151358  0.04953740     0.13500
C780        C  0.94542353  0.83191693  0.08459414    -0.20800
C781        C  0.91770572  0.83165884  0.13783324    -0.07300
C782        C  0.92058792  0.88274347  0.15795509     0.13500
C783        C  0.89171856  0.88659769  0.21526312    -0.24200
H784        H  0.95984619  0.97034254  0.14903849     0.14800
H785        H  0.94528929  0.79275420  0.07115817     0.14900
C786        C  0.00921616  0.87145342  0.00011475    -0.24100
H787        H  0.90119472  0.93074080  0.22621865     0.05100
H788        H  0.90613655  0.87044374  0.25288030     0.08300
H789        H  0.84475993  0.86137921  0.21122509     0.08300
H790        H  0.53582985  0.90823681  0.97355136     0.08300
H791        H  0.98014868  0.83747154  0.46986205     0.08300
H792        H  0.03754916  0.85577010  0.01908894     0.05100
C793        C  0.93945579  0.60965114  0.41701252    -0.20800
C794        C  0.89980935  0.57908504  0.37352375    -0.07300
C795        C  0.88255721  0.52064610  0.36828064     0.13500
C796        C  0.91221703  0.49762514  0.39889814    -0.20800
C797        C  0.95917279  0.52883311  0.43795680    -0.07300
C798        C  0.96962398  0.58678382  0.44843675     0.13500
C799        C  0.01664698  0.63095224  0.48447623    -0.24200
H800        H  0.95083614  0.65403374  0.42301496     0.14800
H801        H  0.89903159  0.95479117  0.38631822     0.14900
C802        C  0.83507622  0.48143850  0.32748726    -0.24100
H803        H  0.04642316  0.66683534  0.45594329     0.05100
H804        H  0.54091572  0.61402152  0.50575242     0.08300
H805        H  0.99855694  0.64783591  0.01934988     0.08300
H806        H  0.84703703  0.49403401  0.28010318     0.08300
H807        H  0.79489331  0.48239974  0.33967612     0.08300
H808        H  0.82589097  0.93647992  0.33099748     0.05100
C809        C  0.60371831  0.52155755  0.43810428    -0.20800
C810        C  0.56073232  0.53785307  0.42647058    -0.07300
C811        C  0.57795164  0.58453832  0.38417054     0.13500
C812        C  0.63499435  0.61453136  0.36561837    -0.20800
C813        C  0.67294029  0.59261191  0.37176586    -0.07300
C814        C  0.65797481  0.54656928  0.41049329     0.13500
C815        C  0.69878428  0.52375995  0.42380097    -0.24200
H816        H  0.59603926  0.98930495  0.46986533     0.14800
H817        H  0.64704952  0.65094878  0.33664380     0.14900
C818        C  0.54103193  0.59924697  0.34400680    -0.24100
H819        H  0.68171284  0.99057131  0.45902985     0.05100
H820        H  0.73976877  0.55863202  0.43966205     0.08300
H821        H  0.70645770  0.50416984  0.38321467     0.08300
H822        H  0.54355868  0.64044933  0.35681930     0.08300
H823        H  0.49708926  0.56622774  0.33876880     0.08300
H824        H  0.55706119  0.60440796  0.29701753     0.05100
C825        C  0.92112527  0.89533805  0.44711908    -0.20800
C826        C  0.97358747  0.94021344  0.42489821    -0.07300
C827        C  0.99212140  0.92697805  0.36801625     0.13500
C828        C  0.96577399  0.87119650  0.34675985    -0.20800
C829        C  0.91312731  0.83007161  0.36848660    -0.07300
C830        C  0.88982469  0.84245829  0.41915028     0.13500
C831        C  0.83358352  0.79945983  0.44569904    -0.24200
H832        H  0.90310670  0.90107499  0.48687264     0.14800
H833        H  0.98313258  0.86131104  0.30689985     0.14900
C834        C  0.53137425  0.96830561  0.32117776    -0.24100
H835        H  0.82292903  0.81508429  0.48764110     0.05100
H836        H  0.83537939  0.75980710  0.45619042     0.08300
H837        H  0.79881758  0.79007378  0.41369081     0.08300
H838        H  0.57656568  0.98802200  0.33310304     0.08300
H839        H  0.51614892  0.99862144  0.30990837     0.08300
H840        H  0.53057506  0.94793073  0.27748981     0.05100
O841        O  0.90867804  0.66275694  0.82378072    -0.82200
C842        C  0.72132572  0.62315693  0.67182303     0.97100
O843        O  0.73695704  0.59004356  0.69458306    -0.71400
O844        O  0.83579308  0.58946250  0.67641512    -0.75000
Al845      Al  0.79349626  0.59377627  0.74579973     1.49000
C846        C  0.88968114  0.61223913  0.67218567     0.92400
O847        O  0.91723073  0.75138855  0.68546307    -0.81200
O848        O  0.83171048  0.75368329  0.82271717    -0.74700
Al849      Al  0.90795830  0.70445972  0.75400046     1.90100
O850        O  0.84477563  0.76811080  0.70161976    -0.73800
O851        O  0.73660308  0.66194121  0.80541710    -0.73700
O852        O  0.74696433  0.67532317  0.68427417    -0.79300
O853        O  0.74658879  0.58584935  0.81442178    -0.77500
O854        O  0.83153460  0.66975142  0.75057311    -1.13600
O855        O  0.84038774  0.58057338  0.79724995    -0.72800
C856        C  0.88163601  0.60946791  0.83023575     0.97900
C857        C  0.89145435  0.78009740  0.67580704     0.94300
Al858      Al  0.79367328  0.71075174  0.75311770     1.55600
O859        O  0.91925108  0.65471250  0.70338557    -0.77500
C860        C  0.72261155  0.61495575  0.82984330     0.98000
C861        C  0.88444502  0.77781971  0.83227567     0.93300
O862        O  0.91598935  0.76226155  0.80503041    -0.82800
C863        C  0.00484952  0.99719990  0.53504452    -0.02900
C864        C  0.49964380  0.00137520  0.95735623    -0.02900
C865        C  0.00216270  0.57469422  0.60779788    -0.20800
C866        C  0.97195252  0.52941796  0.56670096    -0.07300
C867        C  0.91068530  0.51109628  0.56622621     0.13500
C868        C  0.88777048  0.54281305  0.59608207    -0.20800
C869        C  0.91965002  0.58781664  0.63386858    -0.07300
C870        C  0.97823938  0.60385807  0.63971754     0.13500
C871        C  0.01717814  0.65112364  0.68080026    -0.24200
H872        H  0.54558230  0.58804198  0.61849981     0.14800
H873        H  0.84260654  0.52975417  0.59316334     0.14900
C874        C  0.86477784  0.95531521  0.54281239    -0.24100
H875        H  0.56175167  0.65794771  0.67959149     0.05100
H876        H  0.00180487  0.64079497  0.72776618     0.08300
H877        H  0.01898934  0.69176553  0.66704827     0.08300
H878        H  0.86487585  0.95390691  0.49410527     0.08300
H879        H  0.86644578  0.91898451  0.56390786     0.08300
H880        H  0.82101360  0.94805734  0.55410347     0.05100
C881        C  0.62784429  0.54277642  0.65189387    -0.20800
C882        C  0.66907769  0.59670431  0.63453863    -0.07300
C883        C  0.66213187  0.61775247  0.57983680     0.13500
C884        C  0.61302783  0.58452590  0.54546900    -0.20800
C885        C  0.57051675  0.52750865  0.56099269    -0.07300
C886        C  0.58693864  0.50587554  0.61214563     0.13500
C887        C  0.58306697  0.94780213  0.61432422    -0.24200
H888        H  0.63387107  0.52533530  0.69323599     0.14800
H889        H  0.61093994  0.60479539  0.50555888     0.14900
C890        C  0.70616082  0.67514725  0.55762011    -0.24100
H891        H  0.61894035  0.94748592  0.63899496     0.05100
H892        H  0.58887765  0.93533192  0.56891216     0.08300
H893        H  0.54431200  0.91697105  0.63841540     0.08300
H894        H  0.74826882  0.67613191  0.55315417     0.08300
H895        H  0.70945423  0.70839980  0.58964756     0.08300
H896        H  0.69512013  0.68542475  0.51332908     0.05100
C897        C  0.95242405  0.93235773  0.62543946    -0.20800
C898        C  0.97510673  0.93463312  0.56639232    -0.07300
C899        C  0.97550025  0.88151270  0.54953491     0.13500
C900        C  0.94541974  0.83191719  0.58459373    -0.20800
C901        C  0.91770339  0.83166040  0.63783336    -0.07300
C902        C  0.92058319  0.88274473  0.65795243     0.13500
C903        C  0.89170986  0.88659856  0.71525774    -0.24200
H904        H  0.95984080  0.97034363  0.64903396     0.14800
H905        H  0.94528585  0.79275431  0.57115921     0.14900
C906        C  0.00920996  0.87145094  0.50011246    -0.24100
H907        H  0.90118254  0.93074123  0.72621027     0.05100
H908        H  0.90612709  0.87044716  0.75287791     0.08300
H909        H  0.84475163  0.86137732  0.71121713     0.08300
H910        H  0.53582652  0.90823501  0.47355121     0.08300
H911        H  0.98015570  0.83747250  0.96986511     0.08300
H912        H  0.03754030  0.85576415  0.51908626     0.05100
C913        C  0.93945480  0.60964945  0.91701492    -0.20800
C914        C  0.89981314  0.57908469  0.87352159    -0.07300
C915        C  0.88256451  0.52064668  0.86827450     0.13500
C916        C  0.91221757  0.49762397  0.89890121    -0.20800
C917        C  0.95917215  0.52883199  0.93796095    -0.07300
C918        C  0.96962213  0.58678237  0.94844109     0.13500
C919        C  0.01664225  0.63095046  0.98448390    -0.24200
H920        H  0.95083292  0.65403135  0.92301900     0.14800
H921        H  0.89902955  0.95478794  0.88632646     0.14900
C922        C  0.83509684  0.48144293  0.82746538    -0.24100
H923        H  0.04641915  0.66683522  0.95595322     0.05100
H924        H  0.54091100  0.61402052  0.00576129     0.08300
H925        H  0.99856468  0.64783995  0.51934295     0.08300
H926        H  0.84706902  0.49405015  0.78008562     0.08300
H927        H  0.79490761  0.48239473  0.83964551     0.08300
H928        H  0.82592012  0.93648587  0.83096287     0.05100
C929        C  0.60371888  0.52155664  0.93810882    -0.20800
C930        C  0.56073294  0.53785255  0.92647522    -0.07300
C931        C  0.57795375  0.58453893  0.88417627     0.13500
C932        C  0.63499636  0.61453001  0.86562223    -0.20800
C933        C  0.67294036  0.59260765  0.87176629    -0.07300
C934        C  0.65797417  0.54656523  0.91049427     0.13500
C935        C  0.69878190  0.52375318  0.92379938    -0.24200
H936        H  0.59604145  0.98930674  0.96987249     0.14800
H937        H  0.64705256  0.65094823  0.83664918     0.14900
C938        C  0.54103531  0.59925153  0.84401515    -0.24100
H939        H  0.68170990  0.99056360  0.95902709     0.05100
H940        H  0.73976726  0.55862377  0.93966056     0.08300
H941        H  0.70645386  0.50416360  0.88321183     0.08300
H942        H  0.54356374  0.64045393  0.85683065     0.08300
H943        H  0.49709253  0.56623353  0.83877613     0.08300
H944        H  0.55706413  0.60441450  0.79702552     0.05100
C945        C  0.92112607  0.89533477  0.94712507    -0.20800
C946        C  0.97358679  0.94021214  0.92490246    -0.07300
C947        C  0.99211735  0.92697893  0.86801719     0.13500
C948        C  0.96576772  0.87119870  0.84675686    -0.20800
C949        C  0.91312497  0.83007114  0.86848831    -0.07300
C950        C  0.88982636  0.84245408  0.91915732     0.13500
C951        C  0.83359147  0.79944967  0.94571287    -0.24200
H952        H  0.90310854  0.90106964  0.98688069     0.14800
H953        H  0.98312242  0.86131509  0.80689260     0.14900
C954        C  0.53137149  0.96830820  0.82118095    -0.24100
H955        H  0.82293926  0.81507108  0.98765841     0.05100
H956        H  0.83539586  0.75980048  0.95620014     0.08300
H957        H  0.79881983  0.79005799  0.91371042     0.08300
H958        H  0.57656261  0.98802185  0.83310704     0.08300
H959        H  0.51614800  0.99862596  0.80991440     0.08300
H960        H  0.53057214  0.94793575  0.77749136     0.05100
loop_ 
_geom_bond_atom_site_label_1 
_geom_bond_atom_site_label_2 
_geom_bond_distance 
_geom_bond_site_symmetry_2 
_ccdc_geom_bond_type 
O1           C16   1.266       .  A
O1           Al9   1.931       .  S
C2           O12   1.262       .  A
C2            O3   1.255       .  A
C2           C42   1.493       .  S
O3           Al5   1.870       .  S
O4            C6   1.268       .  A
O4           Al5   1.938       .  S
Al5          O13   1.912       .  S
Al5          O15   1.863       .  S
Al5          O14   1.796       .  S
C6           O19   1.249       .  A
C6           C29   1.503       .  S
O7           C17   1.268       .  A
O7           Al9   1.927       .  S
O8           C21   1.258       .  A
O8          Al18   1.924       .  S
Al9          O22   1.847       .  S
Al9          O19   1.868       .  S
Al9          O14   1.795       .  S
O10          C17   1.258       .  A
O10         Al18   1.881       .  S
O11          C20   1.256       .  A
O11         Al18   1.864       .  S
O12         Al18   1.936       .  S
O13          C20   1.260       .  A
O14         Al18   1.805       .  S
O15          C16   1.251       .  A
C16          C74   1.493       .  S
C17          C61   1.483       .  S
C20          C93   1.485       .  S
C21          O22   1.248       .  A
C21         C109   1.480       .  S
C23          C58   1.633       .  S
C23         C266   1.641       .  S
C23         C765   1.654       .  S
C23         C624   1.756   1_554  S
C24         C797   1.628       .  S
C24         C330   1.596   1_655  S
C24         C586   1.617       .  S
C24         C623   1.756   1_655  S
C25          C26   1.432       .  A
C25          C30   1.403       .  A
C25         H512   1.066       .  S
C26         C263   1.641   1_545  S
C26          C27   1.464       .  A
C27         C274   1.511   1_545  S
C27          C28   1.416       .  A
C28          C29   1.389       .  A
C28          H33   1.084       .  S
C29          C30   1.416       .  A
C30          C31   1.515       .  S
C31          H36   1.110       .  S
C31          H37   1.110       .  S
C31         H515   1.111       .  S
H32         C505   1.066       .  S
C34         C267   1.511       .  S
C34          H38   1.091   1_554  S
C34          H39   1.103       .  S
C34          H40   1.111       .  S
H35         C511   1.111       .  S
C41          C42   1.391       .  A
C41          C46   1.399       .  A
C41          H48   1.087       .  S
C42          C43   1.402       .  A
C43          C50   1.507       .  S
C43          C44   1.420       .  A
C44          C45   1.447       .  A
C44          H49   1.064       .  S
C45         C743   1.654   1_545  S
C45          C46   1.449       .  A
C46         C287   1.508   1_545  S
C47         C286   1.508       .  S
C47          H51   1.113       .  S
C47          H52   1.099       .  S
C47          H53   1.104       .  S
C50          H54   1.110       .  S
C50          H55   1.110       .  S
C50          H56   1.111       .  S
C57          C58   1.434       .  A
C57          C62   1.393       .  A
C57          H64   1.076       .  S
C58          C59   1.472       .  A
C59          C66   1.514       .  S
C59          C60   1.417       .  A
C60          C61   1.390       .  A
C60          H65   1.086       .  S
C61          C62   1.403       .  A
C62          C63   1.512       .  S
C63          H67   1.111       .  S
C63          H68   1.102       .  S
C63          H69   1.110       .  S
C66          H72   1.111       .  S
C66         H550   1.077   1_554  S
C66         H191   1.108   1_554  S
H70         C546   1.077   1_556  S
H71         C186   1.108       .  S
C73          C74   1.392       .  A
C73          C78   1.414       .  A
C73          H80   1.086       .  S
C74          C75   1.410       .  A
C75          C82   1.518   1_545  S
C75          C76   1.397   1_545  A
C76          C77   1.436   1_565  A
C76         H321   1.065       .  S
C77         C744   1.628       .  S
C77          C78   1.458       .  A
C78          C79   1.495       .  S
C79          H83   1.110       .  S
C79         H564   1.066       .  S
C79         H205   1.110       .  S
H81         C316   1.065       .  S
C82          H86   1.110       .  S
C82          H87   1.111       .  S
C82         H328   1.111       .  S
H84         C559   1.066       .  S
H85         C199   1.110   1_554  S
H88         C322   1.111       .  S
C89          C90   1.430       .  A
C89          C94   1.406       .  A
C89         H336   1.062   1_545  S
C90         C264   1.596   1_455  S
C90          C91   1.459       .  A
C91          C98   1.524       .  S
C91          C92   1.398       .  A
C92          C93   1.394       .  A
C92          H97   1.086       .  S
C93          C94   1.402       .  A
C94          C95   1.508       .  S
C95         H100   1.110       .  S
C95         H101   1.109       .  S
C95         H339   1.111   1_545  S
H96         C329   1.062       .  S
C98         H102   1.108       .  S
C98         H103   1.090   1_455  S
C98         H104   1.113       .  S
H99         C335   1.111       .  S
C105        C106   1.429       .  A
C105        C110   1.407       .  A
C105        H112   1.048       .  S
C106        C504   1.617       .  S
C106        C107   1.459       .  A
C107        C594   1.518       .  S
C107        C108   1.399       .  A
C108        C109   1.393       .  A
C108        H113   1.085       .  S
C109        C110   1.395       .  A
C110        C111   1.507       .  S
C111        H115   1.111       .  S
C111        H116   1.110       .  S
C111        H117   1.110       .  S
C114        C587   1.518   1_455  S
C114        H118   1.097       .  S
C114        H119   1.095       .  S
C114        H120   1.112       .  S
O121        C136   1.266       .  A
O121       Al129   1.931       .  S
C122        O132   1.262       .  A
C122        O123   1.255       .  A
C122        C162   1.493       .  S
O123       Al125   1.870       .  S
O124        C126   1.268       .  A
O124       Al125   1.938       .  S
Al125       O133   1.912       .  S
Al125       O135   1.863       .  S
Al125       O134   1.796       .  S
C126        O139   1.249       .  A
C126        C149   1.503       .  S
O127        C137   1.268       .  A
O127       Al129   1.927       .  S
O128        C141   1.258       .  A
O128       Al138   1.924       .  S
Al129       O142   1.847       .  S
Al129       O139   1.868       .  S
Al129       O134   1.795       .  S
O130        C137   1.258       .  A
O130       Al138   1.881       .  S
O131        C140   1.256       .  A
O131       Al138   1.864       .  S
O132       Al138   1.936       .  S
O133        C140   1.260       .  A
O134       Al138   1.805       .  S
O135        C136   1.251       .  A
C136        C194   1.493       .  S
C137        C181   1.483       .  S
C140        C213   1.485       .  S
C141        O142   1.248       .  A
C141        C229   1.480       .  S
C143        C386   1.641       .  S
C143        C885   1.654       .  S
C143        C178   1.633       .  S
C143        C504   1.756       .  S
C144        C917   1.628       .  S
C144        C450   1.596   1_655  S
C144        C706   1.617       .  S
C144        C503   1.756   1_656  S
C145        C146   1.432       .  A
C145        C150   1.403       .  A
C145        H632   1.066       .  S
C146        C383   1.641   1_545  S
C146        C147   1.464       .  A
C147        C394   1.511   1_545  S
C147        C148   1.416       .  A
C148        C149   1.389       .  A
C148        H153   1.084       .  S
C149        C150   1.416       .  A
C150        C151   1.515       .  S
C151        H635   1.111       .  S
C151        H156   1.110       .  S
C151        H157   1.110       .  S
H152        C625   1.066       .  S
C154        C387   1.511       .  S
C154        H158   1.091       .  S
C154        H159   1.103       .  S
C154        H160   1.111       .  S
H155        C631   1.111       .  S
C161        C162   1.391       .  A
C161        C166   1.399       .  A
C161        H168   1.087       .  S
C162        C163   1.402       .  A
C163        C170   1.507       .  S
C163        C164   1.420       .  A
C164        C165   1.447       .  A
C164        H169   1.064       .  S
C165        C863   1.654   1_545  S
C165        C166   1.449       .  A
C166        C407   1.508   1_545  S
C167        C406   1.508       .  S
C167        H171   1.113       .  S
C167        H172   1.099       .  S
C167        H173   1.104       .  S
C170        H174   1.110       .  S
C170        H175   1.110       .  S
C170        H176   1.111       .  S
C177        C178   1.434       .  A
C177        C182   1.393       .  A
C177        H184   1.076       .  S
C178        C179   1.472       .  A
C179        C186   1.514       .  S
C179        C180   1.417       .  A
C180        C181   1.390       .  A
C180        H185   1.086       .  S
C181        C182   1.403       .  A
C182        C183   1.512       .  S
C183        H187   1.111       .  S
C183        H188   1.102       .  S
C183        H189   1.110       .  S
C186        H670   1.077       .  S
C186        H192   1.111       .  S
H190        C666   1.077       .  S
C193        C194   1.392       .  A
C193        C198   1.414       .  A
C193        H200   1.086       .  S
C194        C195   1.410       .  A
C195        C202   1.518   1_545  S
C195        C196   1.397   1_545  A
C196        C197   1.436   1_565  A
C196        H441   1.065       .  S
C197        C864   1.628       .  S
C197        C198   1.458       .  A
C198        C199   1.496       .  S
C199        H203   1.110       .  S
C199        H684   1.066   1_556  S
H201        C436   1.065       .  S
C202        H206   1.110       .  S
C202        H207   1.111       .  S
C202        H448   1.111       .  S
H204        C679   1.066   1_554  S
H208        C442   1.111       .  S
C209        C210   1.430       .  A
C209        C214   1.406       .  A
C209        H456   1.062   1_545  S
C210        C384   1.596   1_455  S
C210        C211   1.459       .  A
C211        C218   1.524       .  S
C211        C212   1.398       .  A
C212        C213   1.394       .  A
C212        H217   1.086       .  S
C213        C214   1.402       .  A
C214        C215   1.508       .  S
C215        H459   1.111   1_545  S
C215        H220   1.110       .  S
C215        H221   1.109       .  S
H216        C449   1.062       .  S
C218        H222   1.108       .  S
C218        H223   1.090   1_455  S
C218        H224   1.113       .  S
H219        C455   1.111       .  S
C225        C226   1.429       .  A
C225        C230   1.407       .  A
C225        H232   1.048       .  S
C226        C624   1.617       .  S
C226        C227   1.459       .  A
C227        C714   1.518       .  S
C227        C228   1.399       .  A
C228        C229   1.393       .  A
C228        H233   1.085       .  S
C229        C230   1.395       .  A
C230        C231   1.507       .  S
C231        H235   1.111       .  S
C231        H236   1.110       .  S
C231        H237   1.110       .  S
C234        C707   1.518   1_455  S
C234        H238   1.097       .  S
C234        H239   1.095       .  S
C234        H240   1.112       .  S
O241        C256   1.266       .  A
O241       Al249   1.931       .  S
C242        O252   1.262       .  A
C242        O243   1.255       .  A
C242        C282   1.493       .  S
O243       Al245   1.870       .  S
O244        C246   1.268       .  A
O244       Al245   1.938       .  S
Al245       O253   1.912       .  S
Al245       O255   1.863       .  S
Al245       O254   1.796       .  S
C246        O259   1.249       .  A
C246        C269   1.503       .  S
O247        C257   1.268       .  A
O247       Al249   1.927       .  S
O248        C261   1.258       .  A
O248       Al258   1.924       .  S
Al249       O262   1.847       .  S
Al249       O259   1.868       .  S
Al249       O254   1.795       .  S
O250        C257   1.258       .  A
O250       Al258   1.881       .  S
O251        C260   1.256       .  A
O251       Al258   1.864       .  S
O252       Al258   1.936       .  S
O253        C260   1.260       .  A
O254       Al258   1.805       .  S
O255        C256   1.251       .  A
C256        C314   1.493       .  S
C257        C301   1.483       .  S
C260        C333   1.485       .  S
C261        O262   1.248       .  A
C261        C349   1.480       .  S
C263        C525   1.654   1_565  S
C263        C298   1.633       .  S
C263        C864   1.755   1_564  S
C264        C557   1.628       .  S
C264        C826   1.617   1_545  S
C264        C863   1.755   1_645  S
C265        C266   1.432       .  A
C265        C270   1.403       .  A
C265        H752   1.066       .  S
C266        C267   1.464       .  A
C267        C268   1.416       .  A
C268        C269   1.389       .  A
C268        H273   1.084       .  S
C269        C270   1.416       .  A
C270        C271   1.515       .  S
C271        H755   1.111       .  S
C271        H276   1.110       .  S
C271        H277   1.110       .  S
H272        C745   1.066       .  S
C274        H278   1.091   1_554  S
C274        H279   1.103       .  S
C274        H280   1.111       .  S
H275        C751   1.111       .  S
C281        C282   1.391       .  A
C281        C286   1.399       .  A
C281        H288   1.087       .  S
C282        C283   1.402       .  A
C283        C290   1.507       .  S
C283        C284   1.420       .  A
C284        C285   1.447       .  A
C284        H289   1.064       .  S
C285        C503   1.654       .  S
C285        C286   1.449       .  A
C287        H291   1.113       .  S
C287        H292   1.099       .  S
C287        H293   1.104       .  S
C290        H294   1.110       .  S
C290        H295   1.110       .  S
C290        H296   1.111       .  S
C297        C298   1.434       .  A
C297        C302   1.393       .  A
C297        H304   1.076       .  S
C298        C299   1.472       .  A
C299        C306   1.514       .  S
C299        C300   1.417       .  A
C300        C301   1.390       .  A
C300        H305   1.086       .  S
C301        C302   1.403       .  A
C302        C303   1.512       .  S
C303        H307   1.111       .  S
C303        H308   1.102       .  S
C303        H309   1.110       .  S
C306        H790   1.077   1_554  S
C306        H431   1.108   1_554  S
C306        H312   1.111       .  S
H310        C786   1.077   1_556  S
H311        C426   1.108       .  S
C313        C314   1.392       .  A
C313        C318   1.414       .  A
C313        H320   1.086       .  S
C314        C315   1.410       .  A
C315        C322   1.518       .  S
C315        C316   1.397       .  A
C316        C317   1.436       .  A
C317        C504   1.628       .  S
C317        C318   1.458       .  A
C318        C319   1.495       .  S
C319        H323   1.110       .  S
C319        H804   1.066       .  S
C319        H445   1.110       .  S
C322        H326   1.110       .  S
C322        H327   1.111       .  S
H324        C799   1.066       .  S
H325        C439   1.110   1_554  S
C329        C330   1.430       .  A
C329        C334   1.406       .  A
C330        C331   1.459       .  A
C331        C338   1.524       .  S
C331        C332   1.398       .  A
C332        C333   1.394       .  A
C332        H337   1.086       .  S
C333        C334   1.402       .  A
C334        C335   1.508       .  S
C335        H340   1.110       .  S
C335        H341   1.109       .  S
C338        H342   1.108       .  S
C338        H343   1.090   1_455  S
C338        H344   1.113       .  S
C345        C346   1.429       .  A
C345        C350   1.407       .  A
C345        H352   1.048       .  S
C346        C744   1.617   1_565  S
C346        C347   1.459       .  A
C347        C834   1.518       .  S
C347        C348   1.399       .  A
C348        C349   1.393       .  A
C348        H353   1.085       .  S
C349        C350   1.395       .  A
C350        C351   1.507       .  S
C351        H355   1.111       .  S
C351        H356   1.110       .  S
C351        H357   1.110       .  S
C354        C827   1.518   1_455  S
C354        H358   1.097       .  S
C354        H359   1.095       .  S
C354        H360   1.112       .  S
O361        C376   1.266       .  A
O361       Al369   1.931       .  S
C362        O372   1.262       .  A
C362        O363   1.255       .  A
C362        C402   1.493       .  S
O363       Al365   1.870       .  S
O364        C366   1.268       .  A
O364       Al365   1.938       .  S
Al365       O373   1.912       .  S
Al365       O375   1.863       .  S
Al365       O374   1.796       .  S
C366        O379   1.249       .  A
C366        C389   1.503       .  S
O367        C377   1.268       .  A
O367       Al369   1.927       .  S
O368        C381   1.258       .  A
O368       Al378   1.924       .  S
Al369       O382   1.847       .  S
Al369       O379   1.868       .  S
Al369       O374   1.795       .  S
O370        C377   1.258       .  A
O370       Al378   1.881       .  S
O371        C380   1.256       .  A
O371       Al378   1.864       .  S
O372       Al378   1.936       .  S
O373        C380   1.260       .  A
O374       Al378   1.805       .  S
O375        C376   1.251       .  A
C376        C434   1.493       .  S
C377        C421   1.483       .  S
C380        C453   1.485       .  S
C381        O382   1.248       .  A
C381        C469   1.480       .  S
C383        C645   1.654   1_565  S
C383        C418   1.633       .  S
C383        C744   1.755   1_565  S
C384        C677   1.628       .  S
C384        C946   1.617   1_545  S
C384        C743   1.755   1_646  S
C385        C386   1.432       .  A
C385        C390   1.403       .  A
C385        H872   1.066       .  S
C386        C387   1.464       .  A
C387        C388   1.416       .  A
C388        C389   1.389       .  A
C388        H393   1.084       .  S
C389        C390   1.416       .  A
C390        C391   1.515       .  S
C391        H875   1.111       .  S
C391        H396   1.110       .  S
C391        H397   1.110       .  S
H392        C865   1.066       .  S
C394        H398   1.091       .  S
C394        H399   1.103       .  S
C394        H400   1.111       .  S
H395        C871   1.111       .  S
C401        C402   1.391       .  A
C401        C406   1.399       .  A
C401        H408   1.087       .  S
C402        C403   1.402       .  A
C403        C410   1.507       .  S
C403        C404   1.420       .  A
C404        C405   1.447       .  A
C404        H409   1.064       .  S
C405        C623   1.654       .  S
C405        C406   1.449       .  A
C407        H411   1.113       .  S
C407        H412   1.099       .  S
C407        H413   1.104       .  S
C410        H414   1.110       .  S
C410        H415   1.110       .  S
C410        H416   1.111       .  S
C417        C418   1.434       .  A
C417        C422   1.393       .  A
C417        H424   1.076       .  S
C418        C419   1.472       .  A
C419        C426   1.514       .  S
C419        C420   1.417       .  A
C420        C421   1.390       .  A
C420        H425   1.086       .  S
C421        C422   1.403       .  A
C422        C423   1.512       .  S
C423        H427   1.111       .  S
C423        H428   1.102       .  S
C423        H429   1.110       .  S
C426        H910   1.077       .  S
C426        H432   1.111       .  S
H430        C906   1.077       .  S
C433        C434   1.392       .  A
C433        C438   1.414       .  A
C433        H440   1.086       .  S
C434        C435   1.410       .  A
C435        C442   1.518       .  S
C435        C436   1.397       .  A
C436        C437   1.436       .  A
C437        C624   1.628       .  S
C437        C438   1.458       .  A
C438        C439   1.495       .  S
C439        H443   1.110       .  S
C439        H924   1.066   1_556  S
C442        H446   1.110       .  S
C442        H447   1.111       .  S
H444        C919   1.066   1_554  S
C449        C450   1.430       .  A
C449        C454   1.406       .  A
C450        C451   1.459       .  A
C451        C458   1.524       .  S
C451        C452   1.398       .  A
C452        C453   1.394       .  A
C452        H457   1.086       .  S
C453        C454   1.402       .  A
C454        C455   1.508       .  S
C455        H460   1.110       .  S
C455        H461   1.109       .  S
C458        H462   1.108       .  S
C458        H463   1.090   1_455  S
C458        H464   1.113       .  S
C465        C466   1.429       .  A
C465        C470   1.407       .  A
C465        H472   1.048       .  S
C466        C864   1.617   1_565  S
C466        C467   1.459       .  A
C467        C954   1.518       .  S
C467        C468   1.399       .  A
C468        C469   1.393       .  A
C468        H473   1.085       .  S
C469        C470   1.395       .  A
C470        C471   1.507       .  S
C471        H475   1.111       .  S
C471        H476   1.110       .  S
C471        H477   1.110       .  S
C474        C947   1.518   1_455  S
C474        H478   1.097       .  S
C474        H479   1.095       .  S
C474        H480   1.112       .  S
O481        C496   1.266       .  A
O481       Al489   1.931       .  S
C482        O492   1.262       .  A
C482        O483   1.255       .  A
C482        C522   1.493       .  S
O483       Al485   1.870       .  S
O484        C486   1.268       .  A
O484       Al485   1.938       .  S
Al485       O493   1.912       .  S
Al485       O495   1.863       .  S
Al485       O494   1.796       .  S
C486        O499   1.249       .  A
C486        C509   1.503       .  S
O487        C497   1.268       .  A
O487       Al489   1.927       .  S
O488        C501   1.258       .  A
O488       Al498   1.924       .  S
Al489       O502   1.847       .  S
Al489       O499   1.868       .  S
Al489       O494   1.795       .  S
O490        C497   1.258       .  A
O490       Al498   1.881       .  S
O491        C500   1.256       .  A
O491       Al498   1.864       .  S
O492       Al498   1.936       .  S
O493        C500   1.260       .  A
O494       Al498   1.805       .  S
O495        C496   1.251       .  A
C496        C554   1.493       .  S
C497        C541   1.483       .  S
C500        C573   1.485       .  S
C501        O502   1.248       .  A
C501        C589   1.480       .  S
C503        C746   1.641   1_455  S
C503        C538   1.633   1_455  S
C504        C810   1.596       .  S
C505        C506   1.432   1_455  A
C505        C510   1.403   1_455  A
C506        C743   1.641   1_645  S
C506        C507   1.464       .  A
C507        C754   1.511   1_545  S
C507        C508   1.416       .  A
C508        C509   1.389       .  A
C508        H513   1.084       .  S
C509        C510   1.416       .  A
C510        C511   1.515   1_655  S
C511        H516   1.110       .  S
C511        H517   1.110       .  S
C514        C747   1.511       .  S
C514        H518   1.091   1_554  S
C514        H519   1.103       .  S
C514        H520   1.111       .  S
C521        C522   1.391       .  A
C521        C526   1.399       .  A
C521        H528   1.087       .  S
C522        C523   1.402       .  A
C523        C530   1.507       .  S
C523        C524   1.420       .  A
C524        C525   1.447       .  A
C524        H529   1.064       .  S
C525        C526   1.449       .  A
C526        C767   1.508   1_545  S
C527        C766   1.508       .  S
C527        H531   1.113       .  S
C527        H532   1.099       .  S
C527        H533   1.104       .  S
C530        H534   1.110       .  S
C530        H535   1.110       .  S
C530        H536   1.111       .  S
C537        C538   1.434       .  A
C537        C542   1.393       .  A
C537        H544   1.076       .  S
C538        C539   1.472       .  A
C539        C546   1.514   1_655  S
C539        C540   1.417       .  A
C540        C541   1.390       .  A
C540        H545   1.086       .  S
C541        C542   1.403       .  A
C542        C543   1.512       .  S
C543        H547   1.111       .  S
C543        H548   1.102       .  S
C543        H549   1.110       .  S
C546        H671   1.108   1_454  S
C546        H552   1.111       .  S
H551        C666   1.108   1_655  S
C553        C554   1.392       .  A
C553        C558   1.414       .  A
C553        H560   1.086       .  S
C554        C555   1.410       .  A
C555        C562   1.518   1_545  S
C555        C556   1.397   1_545  A
C556        C557   1.436   1_565  A
C556        H801   1.065       .  S
C557        C558   1.458       .  A
C558        C559   1.495   1_655  S
C559        H563   1.110       .  S
C559        H685   1.110   1_455  S
H561        C796   1.065       .  S
C562        H566   1.110       .  S
C562        H567   1.111       .  S
C562        H808   1.111       .  S
H565        C679   1.110   1_654  S
H568        C802   1.111       .  S
C569        C570   1.430       .  A
C569        C574   1.406       .  A
C569        H816   1.062   1_545  S
C570        C744   1.596       .  S
C570        C571   1.459       .  A
C571        C578   1.524       .  S
C571        C572   1.398       .  A
C572        C573   1.394       .  A
C572        H577   1.086       .  S
C573        C574   1.402       .  A
C574        C575   1.508       .  S
C575        H819   1.111   1_545  S
C575        H580   1.110       .  S
C575        H581   1.109       .  S
H576        C809   1.062       .  S
C578        H582   1.108       .  S
C578        H583   1.090       .  S
C578        H584   1.113       .  S
H579        C815   1.111       .  S
C585        C586   1.429       .  A
C585        C590   1.407       .  A
C585        H592   1.048       .  S
C586        C587   1.459       .  A
C587        C588   1.399       .  A
C588        C589   1.393       .  A
C588        H593   1.085       .  S
C589        C590   1.395       .  A
C590        C591   1.507       .  S
C591        H595   1.111       .  S
C591        H596   1.110       .  S
C591        H597   1.110       .  S
C594        H598   1.097       .  S
C594        H599   1.095       .  S
C594        H600   1.112       .  S
O601        C616   1.266       .  A
O601       Al609   1.931       .  S
C602        O612   1.262       .  A
C602        O603   1.255       .  A
C602        C642   1.493       .  S
O603       Al605   1.870       .  S
O604        C606   1.268       .  A
O604       Al605   1.938       .  S
Al605       O613   1.912       .  S
Al605       O615   1.863       .  S
Al605       O614   1.796       .  S
C606        O619   1.249       .  A
C606        C629   1.503       .  S
O607        C617   1.268       .  A
O607       Al609   1.927       .  S
O608        C621   1.258       .  A
O608       Al618   1.924       .  S
Al609       O622   1.847       .  S
Al609       O619   1.868       .  S
Al609       O614   1.795       .  S
O610        C617   1.258       .  A
O610       Al618   1.881       .  S
O611        C620   1.256       .  A
O611       Al618   1.864       .  S
O612       Al618   1.936       .  S
O613        C620   1.260       .  A
O614       Al618   1.805       .  S
O615        C616   1.251       .  A
C616        C674   1.493       .  S
C617        C661   1.483       .  S
C620        C693   1.485       .  S
C621        O622   1.248       .  A
C621        C709   1.480       .  S
C623        C866   1.641   1_455  S
C623        C658   1.633   1_455  S
C624        C930   1.596       .  S
C625        C626   1.432   1_455  A
C625        C630   1.403   1_455  A
C626        C863   1.641   1_645  S
C626        C627   1.464       .  A
C627        C874   1.511   1_545  S
C627        C628   1.416       .  A
C628        C629   1.389       .  A
C628        H633   1.084       .  S
C629        C630   1.416       .  A
C630        C631   1.515   1_655  S
C631        H636   1.110       .  S
C631        H637   1.110       .  S
C634        C867   1.511       .  S
C634        H638   1.091       .  S
C634        H639   1.103       .  S
C634        H640   1.111       .  S
C641        C642   1.391       .  A
C641        C646   1.399       .  A
C641        H648   1.087       .  S
C642        C643   1.402       .  A
C643        C650   1.507       .  S
C643        C644   1.420       .  A
C644        C645   1.447       .  A
C644        H649   1.064       .  S
C645        C646   1.449       .  A
C646        C887   1.508   1_545  S
C647        C886   1.508       .  S
C647        H651   1.113       .  S
C647        H652   1.099       .  S
C647        H653   1.104       .  S
C650        H654   1.110       .  S
C650        H655   1.110       .  S
C650        H656   1.111       .  S
C657        C658   1.434       .  A
C657        C662   1.393       .  A
C657        H664   1.076       .  S
C658        C659   1.472       .  A
C659        C666   1.514   1_655  S
C659        C660   1.417       .  A
C660        C661   1.390       .  A
C660        H665   1.086       .  S
C661        C662   1.403       .  A
C662        C663   1.512       .  S
C663        H667   1.111       .  S
C663        H668   1.102       .  S
C663        H669   1.110       .  S
C666        H672   1.111       .  S
C673        C674   1.392       .  A
C673        C678   1.414       .  A
C673        H680   1.086       .  S
C674        C675   1.410       .  A
C675        C682   1.518   1_545  S
C675        C676   1.397   1_545  A
C676        C677   1.436   1_565  A
C676        H921   1.065       .  S
C677        C678   1.458       .  A
C678        C679   1.496   1_655  S
C679        H683   1.110       .  S
H681        C916   1.065       .  S
C682        H686   1.110       .  S
C682        H687   1.111       .  S
C682        H928   1.111       .  S
H688        C922   1.111       .  S
C689        C690   1.430       .  A
C689        C694   1.406       .  A
C689        H936   1.062   1_545  S
C690        C864   1.596       .  S
C690        C691   1.459       .  A
C691        C698   1.524       .  S
C691        C692   1.398       .  A
C692        C693   1.394       .  A
C692        H697   1.086       .  S
C693        C694   1.402       .  A
C694        C695   1.508       .  S
C695        H939   1.111   1_545  S
C695        H700   1.110       .  S
C695        H701   1.109       .  S
H696        C929   1.062       .  S
C698        H702   1.108       .  S
C698        H703   1.090       .  S
C698        H704   1.113       .  S
H699        C935   1.111       .  S
C705        C706   1.429       .  A
C705        C710   1.407       .  A
C705        H712   1.048       .  S
C706        C707   1.459       .  A
C707        C708   1.399       .  A
C708        C709   1.393       .  A
C708        H713   1.085       .  S
C709        C710   1.395       .  A
C710        C711   1.507       .  S
C711        H715   1.111       .  S
C711        H716   1.110       .  S
C711        H717   1.110       .  S
C714        H718   1.097       .  S
C714        H719   1.095       .  S
C714        H720   1.112       .  S
O721        C736   1.266       .  A
O721       Al729   1.931       .  S
C722        O732   1.262       .  A
C722        O723   1.255       .  A
C722        C762   1.493       .  S
O723       Al725   1.870       .  S
O724        C726   1.268       .  A
O724       Al725   1.938       .  S
Al725       O733   1.912       .  S
Al725       O735   1.863       .  S
Al725       O734   1.796       .  S
C726        O739   1.249       .  A
C726        C749   1.503       .  S
O727        C737   1.268       .  A
O727       Al729   1.927       .  S
O728        C741   1.258       .  A
O728       Al738   1.924       .  S
Al729       O742   1.847       .  S
Al729       O739   1.868       .  S
Al729       O734   1.795       .  S
O730        C737   1.258       .  A
O730       Al738   1.881       .  S
O731        C740   1.256       .  A
O731       Al738   1.864       .  S
O732       Al738   1.936       .  S
O733        C740   1.260       .  A
O734       Al738   1.805       .  S
O735        C736   1.251       .  A
C736        C794   1.493       .  S
C737        C781   1.483       .  S
C740        C813   1.485       .  S
C741        O742   1.248       .  A
C741        C829   1.480       .  S
C743        C778   1.633   1_455  S
C745        C746   1.432   1_455  A
C745        C750   1.403   1_455  A
C746        C747   1.464       .  A
C747        C748   1.416       .  A
C748        C749   1.389       .  A
C748        H753   1.084       .  S
C749        C750   1.416       .  A
C750        C751   1.515   1_655  S
C751        H756   1.110       .  S
C751        H757   1.110       .  S
C754        H758   1.091   1_554  S
C754        H759   1.103       .  S
C754        H760   1.111       .  S
C761        C762   1.391       .  A
C761        C766   1.399       .  A
C761        H768   1.087       .  S
C762        C763   1.402       .  A
C763        C770   1.507       .  S
C763        C764   1.420       .  A
C764        C765   1.447       .  A
C764        H769   1.064       .  S
C765        C766   1.449       .  A
C767        H771   1.113       .  S
C767        H772   1.099       .  S
C767        H773   1.104       .  S
C770        H774   1.110       .  S
C770        H775   1.110       .  S
C770        H776   1.111       .  S
C777        C778   1.434       .  A
C777        C782   1.393       .  A
C777        H784   1.076       .  S
C778        C779   1.472       .  A
C779        C786   1.514   1_655  S
C779        C780   1.417       .  A
C780        C781   1.390       .  A
C780        H785   1.086       .  S
C781        C782   1.403       .  A
C782        C783   1.512       .  S
C783        H787   1.111       .  S
C783        H788   1.102       .  S
C783        H789   1.110       .  S
C786        H911   1.108   1_454  S
C786        H792   1.111       .  S
H791        C906   1.108   1_655  S
C793        C794   1.392       .  A
C793        C798   1.414       .  A
C793        H800   1.086       .  S
C794        C795   1.410       .  A
C795        C802   1.518       .  S
C795        C796   1.397       .  A
C796        C797   1.436       .  A
C797        C798   1.458       .  A
C798        C799   1.495   1_655  S
C799        H803   1.110       .  S
C799        H925   1.110   1_455  S
C802        H806   1.110       .  S
C802        H807   1.111       .  S
H805        C919   1.110   1_654  S
C809        C810   1.430       .  A
C809        C814   1.406       .  A
C810        C811   1.459       .  A
C811        C818   1.524       .  S
C811        C812   1.398       .  A
C812        C813   1.394       .  A
C812        H817   1.086       .  S
C813        C814   1.402       .  A
C814        C815   1.508       .  S
C815        H820   1.110       .  S
C815        H821   1.109       .  S
C818        H822   1.108       .  S
C818        H823   1.090       .  S
C818        H824   1.113       .  S
C825        C826   1.429       .  A
C825        C830   1.407       .  A
C825        H832   1.048       .  S
C826        C827   1.459       .  A
C827        C828   1.399       .  A
C828        C829   1.393       .  A
C828        H833   1.085       .  S
C829        C830   1.395       .  A
C830        C831   1.507       .  S
C831        H835   1.111       .  S
C831        H836   1.110       .  S
C831        H837   1.110       .  S
C834        H838   1.097       .  S
C834        H839   1.095       .  S
C834        H840   1.112       .  S
O841        C856   1.266       .  A
O841       Al849   1.931       .  S
C842        O852   1.262       .  A
C842        O843   1.255       .  A
C842        C882   1.493       .  S
O843       Al845   1.870       .  S
O844        C846   1.268       .  A
O844       Al845   1.938       .  S
Al845       O853   1.912       .  S
Al845       O855   1.863       .  S
Al845       O854   1.796       .  S
C846        O859   1.249       .  A
C846        C869   1.503       .  S
O847        C857   1.268       .  A
O847       Al849   1.927       .  S
O848        C861   1.258       .  A
O848       Al858   1.924       .  S
Al849       O862   1.847       .  S
Al849       O859   1.868       .  S
Al849       O854   1.795       .  S
O850        C857   1.258       .  A
O850       Al858   1.881       .  S
O851        C860   1.256       .  A
O851       Al858   1.864       .  S
O852       Al858   1.936       .  S
O853        C860   1.260       .  A
O854       Al858   1.805       .  S
O855        C856   1.251       .  A
C856        C914   1.493       .  S
C857        C901   1.483       .  S
C860        C933   1.485       .  S
C861        O862   1.248       .  A
C861        C949   1.480       .  S
C863        C898   1.633   1_455  S
C865        C866   1.432   1_455  A
C865        C870   1.403   1_455  A
C866        C867   1.464       .  A
C867        C868   1.416       .  A
C868        C869   1.389       .  A
C868        H873   1.084       .  S
C869        C870   1.416       .  A
C870        C871   1.515   1_655  S
C871        H876   1.110       .  S
C871        H877   1.110       .  S
C874        H878   1.091       .  S
C874        H879   1.103       .  S
C874        H880   1.111       .  S
C881        C882   1.391       .  A
C881        C886   1.399       .  A
C881        H888   1.087       .  S
C882        C883   1.402       .  A
C883        C890   1.507       .  S
C883        C884   1.420       .  A
C884        C885   1.447       .  A
C884        H889   1.064       .  S
C885        C886   1.449       .  A
C887        H891   1.113       .  S
C887        H892   1.099       .  S
C887        H893   1.104       .  S
C890        H894   1.110       .  S
C890        H895   1.110       .  S
C890        H896   1.111       .  S
C897        C898   1.434       .  A
C897        C902   1.393       .  A
C897        H904   1.076       .  S
C898        C899   1.472       .  A
C899        C906   1.514   1_655  S
C899        C900   1.417       .  A
C900        C901   1.390       .  A
C900        H905   1.086       .  S
C901        C902   1.403       .  A
C902        C903   1.512       .  S
C903        H907   1.111       .  S
C903        H908   1.102       .  S
C903        H909   1.110       .  S
C906        H912   1.111       .  S
C913        C914   1.392       .  A
C913        C918   1.414       .  A
C913        H920   1.086       .  S
C914        C915   1.410       .  A
C915        C922   1.518       .  S
C915        C916   1.397       .  A
C916        C917   1.436       .  A
C917        C918   1.458       .  A
C918        C919   1.495   1_655  S
C919        H923   1.110       .  S
C922        H926   1.110       .  S
C922        H927   1.111       .  S
C929        C930   1.430       .  A
C929        C934   1.406       .  A
C930        C931   1.459       .  A
C931        C938   1.524       .  S
C931        C932   1.398       .  A
C932        C933   1.394       .  A
C932        H937   1.086       .  S
C933        C934   1.402       .  A
C934        C935   1.508       .  S
C935        H940   1.110       .  S
C935        H941   1.109       .  S
C938        H942   1.108       .  S
C938        H943   1.090       .  S
C938        H944   1.113       .  S
C945        C946   1.429       .  A
C945        C950   1.407       .  A
C945        H952   1.048       .  S
C946        C947   1.459       .  A
C947        C948   1.399       .  A
C948        C949   1.393       .  A
C948        H953   1.085       .  S
C949        C950   1.395       .  A
C950        C951   1.507       .  S
C951        H955   1.111       .  S
C951        H956   1.110       .  S
C951        H957   1.110       .  S
C954        H958   1.097       .  S
C954        H959   1.095       .  S
C954        H960   1.112       .  S
