geometry optimzed in LAMMPS
_audit_creation_date              2020-12-01 
_audit_creation_method            'lammps2cif' 
_symmetry_space_group_name_H-M    'P1' 
_symmetry_Int_Tables_number       1 
_symmetry_cell_setting            triclinic 
loop_ 
_symmetry_equiv_pos_as_xyz 
  x,y,z 
_cell_length_a                    34.82064459 
_cell_length_b                    34.80603556901655 
_cell_length_c                    31.857804960235345 
_cell_angle_alpha                 89.1192851027434 
_cell_angle_beta                  90.79565009004496 
_cell_angle_gamma                 120.57230483754972 
loop_ 
_atom_site_label 
_atom_site_type_symbol 
_atom_site_fract_x 
_atom_site_fract_y 
_atom_site_fract_z 
_atom_site_charge 
Zn1        Zn  0.86083665  0.14626803  0.18862814     1.49700
Zn2        Zn  0.83494711  0.17864642  0.10082321     1.49400
Zn3        Zn  0.77002816  0.14809627  0.17926510     1.49100
Zn4        Zn  0.86546546  0.24003971  0.18336828     1.49500
O5          O  0.83302999  0.17825488  0.16293242    -1.82700
O6          O  0.88146775  0.12301096  0.14205950    -0.73300
O7          O  0.77251978  0.14459372  0.07430317    -0.73100
O8          O  0.75391898  0.09551780  0.21749432    -0.72600
O9          O  0.86731190  0.14752559  0.08200488    -0.73300
O10         O  0.81613005  0.09266103  0.22382971    -0.72900
O11         O  0.72759508  0.12296442  0.12944900    -0.73500
O12         O  0.82342346  0.25360800  0.21443081    -0.72900
O13         O  0.86957205  0.24211779  0.07766264    -0.73700
O14         O  0.75782955  0.19063307  0.20992535    -0.73000
O15         O  0.89248081  0.28408823  0.13497803    -0.73500
O16         O  0.91732618  0.25161721  0.22186974    -0.73400
O17         O  0.91589467  0.18705930  0.22492584    -0.73200
C18         C  0.88280864  0.12645622  0.10217546     0.78600
C19         C  0.73354773  0.12373797  0.09005867     0.79100
C20         C  0.77502261  0.07718522  0.23186366     0.78000
C21         C  0.78169480  0.23088963  0.22193217     0.78400
C22         C  0.89132677  0.28004624  0.09526176     0.79500
C23         C  0.93366914  0.22806908  0.23476284     0.78600
C24         C  0.06390892  0.36130100  0.35930575     0.81700
N25         N  0.03247829  0.33088250  0.33318345    -0.76600
C26         C  0.04065395  0.30279881  0.31111746     0.84100
N27         N  0.08100523  0.30529286  0.31534283    -0.76600
C28         C  0.11282789  0.33595718  0.34184723     0.84200
N29         N  0.10383525  0.36369192  0.36364928    -0.78300
C30         C  0.63342005  0.92630029  0.34390104     0.81700
N31         N  0.63810975  0.88978594  0.34436779    -0.76600
C32         C  0.67209104  0.89038346  0.32295626     0.84100
N33         N  0.70130806  0.92784371  0.30131737    -0.76600
C34         C  0.69680690  0.96438698  0.30096135     0.84200
N35         N  0.66285262  0.96348144  0.32223760    -0.78300
C36         C  0.03664536  0.40996154  0.97612494     0.81700
N37         N  0.00400924  0.37752647  0.00000705    -0.76600
C38         C  0.97658334  0.38616129  0.02262386     0.84100
N39         N  0.98188216  0.42769210  0.02139837    -0.76600
C40         C  0.01457788  0.46058208  0.99738999     0.84200
N41         N  0.04188196  0.45143586  0.97478962    -0.78300
C42         C  0.60392719  0.97722250  0.97068222     0.81700
N43         N  0.56360473  0.97408836  0.96708747    -0.76600
C44         C  0.55529440  0.00311437  0.98734878     0.84100
N45         N  0.58804423  0.03573900  0.01154161    -0.76600
C46         C  0.62869946  0.03902966  0.01516717     0.84200
N47         N  0.63641490  0.00968444  0.99466249    -0.78300
Zn48       Zn  0.46512577  0.42764237  0.49176049     1.49700
Zn49       Zn  0.55989574  0.51983011  0.49224605     1.49400
Zn50       Zn  0.46857385  0.51980944  0.47921302     1.49100
Zn51       Zn  0.49515598  0.49457527  0.57072619     1.49500
O52         O  0.49702706  0.49049467  0.50885217    -1.82700
O53         O  0.50610456  0.41350336  0.46010820    -0.73300
O54         O  0.57622797  0.57214848  0.45372510    -0.73100
O55         O  0.41326192  0.47624373  0.44449248    -0.72600
O56         O  0.57134303  0.47703225  0.46117826    -0.73300
O57         O  0.41153323  0.41207528  0.45436387    -0.72900
O58         O  0.51253099  0.57093398  0.44182702    -0.73500
O59         O  0.46272809  0.52761252  0.58525987    -0.72900
O60         O  0.60274840  0.54458201  0.54161169    -0.73700
O61         O  0.44928318  0.54757742  0.52235496    -0.73000
O62         O  0.55849487  0.52967140  0.59656205    -0.73500
O63         O  0.46135795  0.43208518  0.59714515    -0.73400
O64         O  0.44179366  0.38671898  0.54229779    -0.73200
C65         C  0.54726627  0.43634097  0.45056374     0.78600
C66         C  0.55427030  0.58810259  0.43622288     0.79100
C67         C  0.39516870  0.43440064  0.43833724     0.78000
C68         C  0.44810045  0.54783210  0.56228213     0.78400
C69         C  0.59739072  0.54708711  0.58067504     0.79500
C70         C  0.44223874  0.39300946  0.58157412     0.78600
Zn71       Zn  0.67544076  0.84107737  0.89273321     1.49700
Zn72       Zn  0.63018913  0.77056787  0.81836398     1.49400
Zn73       Zn  0.63226297  0.86380164  0.81365515     1.49100
Zn74       Zn  0.72174562  0.86149943  0.80087403     1.49500
O75         O  0.66504542  0.83431998  0.83153426    -1.82700
O76         O  0.64845120  0.78052362  0.92239980    -0.73300
O77         O  0.57258196  0.75550392  0.78930061    -0.73100
O78         O  0.62073104  0.89286198  0.86255240    -0.72600
O79         O  0.61680360  0.73198178  0.87040390    -0.73300
O80         O  0.65082784  0.87734995  0.91756973    -0.72900
O81         O  0.57380906  0.81994173  0.78634217    -0.73500
O82         O  0.73040034  0.91296218  0.76283913    -0.72900
O83         O  0.66369467  0.75286869  0.77975010    -0.73700
O84         O  0.66710452  0.91288666  0.77157844    -0.73000
O85         O  0.72668280  0.81615936  0.76569378    -0.73500
O86         O  0.77229210  0.88479897  0.84240525    -0.73400
O87         O  0.74152356  0.87400383  0.90553415    -0.73200
C88         C  0.62683769  0.74059144  0.90901582     0.78600
C89         C  0.55476817  0.77837451  0.77859463     0.79100
C90         C  0.63061840  0.89593187  0.90144024     0.78000
C91         C  0.70519000  0.92880753  0.75477633     0.78400
C92         C  0.70112111  0.77427370  0.76141355     0.79500
C93         C  0.77558894  0.88802904  0.88223121     0.78600
C94         C  0.73274395  0.69634884  0.69305579     0.81700
N95         N  0.77347233  0.70019035  0.69516115    -0.76600
C96         C  0.78122027  0.67054129  0.67525194     0.84100
N97         N  0.74740355  0.63658919  0.65292186    -0.76600
C98         C  0.70633689  0.63271113  0.65085563     0.84200
N99         N  0.69934877  0.66264634  0.67102375    -0.78300
C100        C  0.69666687  0.05781014  0.62791446     0.81700
N101        N  0.73476824  0.09810312  0.62630507    -0.76600
C102        C  0.77098411  0.10550461  0.64929040     0.84100
N103        N  0.76877444  0.07213647  0.67404774    -0.76600
C104        C  0.73060325  0.03167953  0.67551193     0.84200
N105        N  0.69459598  0.02466711  0.65247781    -0.78300
C106        C  0.64641950  0.61264075  0.02954494     0.81700
N107        N  0.64627449  0.64567838  0.00656127    -0.76600
C108        C  0.60897618  0.63790536  0.98536478     0.84100
N109        N  0.57161042  0.59677258  0.98721209    -0.76600
C110        C  0.57153387  0.56345823  0.01042381     0.84200
N111        N  0.60908992  0.57168006  0.03155544    -0.78300
Zn112      Zn  0.96197892  0.52034950  0.49457240     1.49700
Zn113      Zn  0.95898505  0.42718454  0.49089135     1.49400
Zn114      Zn  0.05141276  0.51802263  0.47942192     1.49100
Zn115      Zn  0.00346136  0.49093275  0.57046187     1.49500
O116        O  0.99412994  0.48926216  0.50907314    -1.82700
O117        O  0.90430379  0.48001218  0.46387457    -0.73300
O118        O  0.99270065  0.41190662  0.45028355    -0.73100
O119        O  0.06166594  0.57317702  0.44667806    -0.72600
O120        O  0.90264863  0.41546221  0.46183185    -0.73300
O121        O  0.99881039  0.57353668  0.45726394    -0.72900
O122        O  0.05617869  0.47577357  0.43965133    -0.73500
O123        O  0.06958395  0.52214717  0.58431800    -0.72900
O124        O  0.94326283  0.38427103  0.53947568    -0.73700
O125        O  0.10121997  0.53648433  0.52130872    -0.73000
O126        O  0.97491849  0.42788304  0.59486311    -0.73500
O127        O  0.97808822  0.52495898  0.59928383    -0.73400
O128        O  0.94857374  0.54401761  0.54627448    -0.73200
C129        C  0.88532059  0.43922091  0.45314333     0.78600
C130        C  0.03040353  0.43440357  0.43266822     0.79100
C131        C  0.03729610  0.59043161  0.44109343     0.78000
C132        C  0.10394116  0.53700494  0.56121874     0.78400
C133        C  0.95256582  0.38936154  0.57845167     0.79500
C134        C  0.95759015  0.54411458  0.58511087     0.78600
Zn135      Zn  0.86936642  0.73823267  0.21491830     1.49700
Zn136      Zn  0.85312636  0.69374116  0.12239600     1.49400
Zn137      Zn  0.87232185  0.64794596  0.19997867     1.49100
Zn138      Zn  0.78022605  0.64681199  0.19588274     1.49500
O139        O  0.84393623  0.68205740  0.18325130    -1.82700
O140        O  0.89254533  0.78989948  0.17372423    -0.73300
O141        O  0.88934054  0.66883820  0.09715897    -0.73100
O142        O  0.92102700  0.68265374  0.24103287    -0.72600
O143        O  0.88536119  0.76002844  0.11065165    -0.73300
O144        O  0.92091776  0.74564531  0.25248128    -0.72900
O145        O  0.90076855  0.63491171  0.15140048    -0.73500
O146        O  0.76470676  0.58885572  0.22457011    -0.72900
O147        O  0.79352722  0.66656194  0.09200346    -0.73700
O148        O  0.82885072  0.58972248  0.22768849    -0.73000
O149        O  0.74379501  0.63344817  0.14308067    -0.73500
O150        O  0.76024677  0.67927183  0.23354076    -0.73400
O151        O  0.82250518  0.74201898  0.25012900    -0.73200
C152        C  0.89727211  0.79371028  0.13397697     0.78600
C153        C  0.90540597  0.64605256  0.11278753     0.79700
C154        C  0.93685471  0.72013919  0.25884538     0.78000
C155        C  0.78727875  0.57071065  0.23516252     0.78400
C156        C  0.75339982  0.64391869  0.10467671     0.79500
C157        C  0.78039406  0.71620068  0.25277440     0.78600
C158        C  0.69343935  0.73591348  0.32065893     0.81700
N159        N  0.66417692  0.69918680  0.34289412    -0.76600
C160        C  0.63091625  0.69899641  0.36470441     0.84100
N161        N  0.62688799  0.73579521  0.36437234    -0.76600
C162        C  0.65593161  0.77285883  0.34218211     0.84200
N163        N  0.68930144  0.77279424  0.32021232    -0.78300
C164        C  0.04245946  0.73771080  0.32795554     0.81700
N165        N  0.08438664  0.77276976  0.32293465    -0.76600
C166        C  0.11958039  0.77239169  0.34149812     0.84100
N167        N  0.11251915  0.73647934  0.36506071    -0.76600
C168        C  0.07053836  0.70112711  0.36984341     0.84200
N169        N  0.03556198  0.70179540  0.35124287    -0.78300
Zn170      Zn  0.46342852  0.02172204  0.46789151     1.49700
Zn171      Zn  0.46250720  0.92951012  0.45490567     1.49400
Zn172      Zn  0.55444965  0.02139073  0.46615635     1.49100
Zn173      Zn  0.48828936  0.97890180  0.54490621     1.49500
O174        O  0.49198082  0.98752094  0.48353720    -1.82700
O175        O  0.41333100  0.98731363  0.42777355    -0.73300
O176        O  0.50691348  0.92087087  0.42025069    -0.73100
O177        O  0.56938290  0.07866957  0.43635724    -0.72600
O178        O  0.41270134  0.92394349  0.41666823    -0.73300
O179        O  0.50619197  0.07948641  0.43908341    -0.72900
O180        O  0.56981819  0.98597356  0.42801354    -0.73500
O181        O  0.54980757  0.00690563  0.57063109    -0.72900
O182        O  0.43457250  0.87965749  0.49815273    -0.73700
O183        O  0.59525643  0.03653684  0.51596208    -0.73000
O184        O  0.45650716  0.91326297  0.56004859    -0.73500
O185        O  0.45414720  0.00532060  0.57187570    -0.73400
O186        O  0.43740377  0.03544388  0.51780203    -0.73200
C187        C  0.39722298  0.94973038  0.41006766     0.78600
C188        C  0.54833804  0.94691150  0.41298294     0.79100
C189        C  0.54690926  0.09754641  0.42845561     0.78000
C190        C  0.58871426  0.02810824  0.55500928     0.78400
C191        C  0.43587041  0.87805742  0.53814595     0.79500
C192        C  0.43598886  0.02642247  0.55677769     0.78600
Zn193      Zn  0.10380024  0.29549559  0.85643117     1.49700
Zn194      Zn  0.19407437  0.38933586  0.86353263     1.49400
Zn195      Zn  0.19669421  0.29832962  0.85914875     1.49100
Zn196      Zn  0.17079792  0.33458370  0.77725481     1.49500
O197        O  0.16632695  0.32952722  0.83896317    -1.82700
O198        O  0.08761836  0.33197565  0.89334817    -0.73300
O199        O  0.24753650  0.40174229  0.89927462    -0.73100
O200        O  0.15497924  0.24128706  0.89015594    -0.72600
O201        O  0.15046641  0.39756685  0.89852977    -0.73300
O202        O  0.09007768  0.23891136  0.88767555    -0.72900
O203        O  0.24775594  0.33790133  0.89691211    -0.73500
O204        O  0.20567617  0.30739907  0.75441838    -0.72900
O205        O  0.21625306  0.43620489  0.81800033    -0.73700
O206        O  0.22350763  0.28233266  0.81168794    -0.73000
O207        O  0.20212220  0.39926279  0.75799283    -0.73500
O208        O  0.10934056  0.30397757  0.75102773    -0.73400
O209        O  0.06349014  0.27809730  0.80579989    -0.73200
C210        C  0.10937353  0.37176647  0.90688335     0.78600
C211        C  0.26442000  0.37787640  0.90919722     0.79100
C212        C  0.11354194  0.22177192  0.89854043     0.78000
C213        C  0.22466057  0.28835575  0.77217569     0.78400
C214        C  0.21768695  0.43554081  0.77815673     0.79500
C215        C  0.07031352  0.28378790  0.76648601     0.78600
C216        C  0.30215468  0.25766981  0.70179910     0.81700
N217        N  0.29822590  0.21684515  0.70103011    -0.76600
C218        C  0.32625501  0.20983120  0.67730488     0.84100
N219        N  0.35845529  0.24426935  0.65417895    -0.76600
C220        C  0.36246707  0.28529241  0.65516252     0.84200
N221        N  0.33422202  0.29171169  0.67888158    -0.78300
C222        C  0.92879459  0.28032522  0.64753128     0.81700
N223        N  0.89109577  0.23941224  0.64663720    -0.76600
C224        C  0.88942152  0.20465291  0.66862386     0.84100
N225        N  0.92554819  0.21118301  0.69126992    -0.76600
C226        C  0.96313139  0.25190285  0.69190772     0.84200
N227        N  0.96467586  0.28639496  0.67015432    -0.78300
Zn228      Zn  0.34451314  0.17441648  0.21876448     1.49700
Zn229      Zn  0.30541232  0.20879089  0.14422729     1.49400
Zn230      Zn  0.39496053  0.20652233  0.12978432     1.49100
Zn231      Zn  0.30128933  0.11557471  0.13633431     1.49500
O232        O  0.33663115  0.17643962  0.15744526    -1.82700
O233        O  0.31762311  0.20603770  0.24908799    -0.73300
O234        O  0.34347771  0.26304306  0.10817168    -0.73100
O235        O  0.44366312  0.23030789  0.17327357    -0.72600
O236        O  0.29195567  0.23064920  0.19716318    -0.73300
O237        O  0.41003245  0.20571923  0.23491580    -0.72900
O238        O  0.40481206  0.26034974  0.09588137    -0.73500
O239        O  0.33556337  0.10263102  0.09450385    -0.72900
O240        O  0.24693538  0.16971891  0.11366564    -0.73700
O241        O  0.40238343  0.16439014  0.09173046    -0.73000
O242        O  0.24456182  0.10501148  0.10866620    -0.73500
O243        O  0.28554662  0.07013504  0.18277112    -0.73400
O244        O  0.31615248  0.11076535  0.24003266    -0.73200
C245        C  0.29872308  0.22716806  0.23601396     0.78600
C246        C  0.38166244  0.27899766  0.09147245     0.79100
C247        C  0.44520298  0.22742988  0.21307406     0.78000
C248        C  0.37521269  0.12435851  0.08080428     0.78400
C249        C  0.22723958  0.12915996  0.10202238     0.79500
C250        C  0.29432515  0.07324539  0.22186250     0.78600
C251        C  0.26564580  0.29728692  0.31426504     0.81700
N252        N  0.29714552  0.32809774  0.34013720    -0.76600
C253        C  0.28829699  0.35523237  0.36306165     0.84100
N254        N  0.24731996  0.35145757  0.35985753    -0.76600
C255        C  0.21545578  0.32043093  0.33366588     0.84200
N256        N  0.22506046  0.29362976  0.31104229    -0.78300
C257        C  0.29377168  0.92760486  0.33431311     0.81700
N258        N  0.29980695  0.96355883  0.31168789    -0.76600
C259        C  0.26549456  0.96151323  0.28916135     0.84100
N260        N  0.22498424  0.92349084  0.28945792    -0.76600
C261        C  0.21875103  0.88743856  0.31225749     0.84200
N262        N  0.25327939  0.88971602  0.33478758    -0.78300
C263        C  0.41224399  0.38907632  0.02182916     0.81700
N264        N  0.45054381  0.42954950  0.02025124    -0.76600
C265        C  0.45193560  0.46340606  0.99679897     0.84100
N266        N  0.41493124  0.45638376  0.97534285    -0.76600
C267        C  0.37686985  0.41608626  0.97721077     0.84200
N268        N  0.37565822  0.38258970  0.00032315    -0.78300
Zn269      Zn  0.16982873  0.84121545  0.89400494     1.49700
Zn270      Zn  0.13709951  0.77010567  0.81873492     1.49400
Zn271      Zn  0.13820586  0.86105998  0.80255436     1.49100
Zn272      Zn  0.23095640  0.86283322  0.81364669     1.49500
O273        O  0.16887787  0.83394793  0.83241403    -1.82700
O274        O  0.13651744  0.78025959  0.92350228    -0.73300
O275        O  0.08269133  0.75212942  0.78204949    -0.73100
O276        O  0.11435867  0.88475459  0.84586096    -0.72600
O277        O  0.11458586  0.73185813  0.87100592    -0.73300
O278        O  0.13803919  0.87443956  0.90816028    -0.72900
O279        O  0.08377210  0.81544061  0.76833897    -0.73500
O280        O  0.24461429  0.91250252  0.77249414    -0.72900
O281        O  0.17757195  0.75431722  0.78847365    -0.73700
O282        O  0.18131167  0.91311330  0.76449684    -0.73000
O283        O  0.24232040  0.81826558  0.78544259    -0.73500
O284        O  0.27560272  0.89159370  0.86129340    -0.73400
O285        O  0.23336797  0.87757792  0.91762899    -0.73200
C286        C  0.11624162  0.74034583  0.90988914     0.78600
C287        C  0.06582806  0.77330605  0.76453779     0.79100
C288        C  0.11688704  0.88828773  0.88569593     0.78000
C289        C  0.22250071  0.92899120  0.75636066     0.78400
C290        C  0.21837784  0.77673980  0.77767507     0.79500
C291        C  0.27157011  0.89540131  0.90039763     0.78600
C292        C  0.92921359  0.62343530  0.65499856     0.81700
N293        N  0.88922056  0.62099747  0.65079378    -0.76600
C294        C  0.88189276  0.65169591  0.66912224     0.84100
N295        N  0.91541412  0.68536862  0.69191109    -0.76600
C296        C  0.95575352  0.68792215  0.69604868     0.84200
N297        N  0.96235548  0.65691264  0.67748888    -0.78300
C298        C  0.36161232  0.05821271  0.63138616     0.81700
N299        N  0.32968667  0.02525378  0.65550649    -0.76600
C300        C  0.30257146  0.03329306  0.67937780     0.84100
N301        N  0.30760340  0.07470353  0.67923760    -0.76600
C302        C  0.33956120  0.10804099  0.65503628     0.84200
N303        N  0.36646810  0.09951522  0.63115935    -0.78300
C304        C  0.97951835  0.61345563  0.03849432     0.81700
N305        N  0.97504858  0.57232717  0.03929905    -0.76600
C306        C  0.00141414  0.56341717  0.01499180     0.84100
N307        N  0.03244282  0.59622888  0.98965919    -0.76600
C308        C  0.03697767  0.63748977  0.98890143     0.84200
N309        N  0.01044683  0.64585580  0.01327170    -0.78300
C310        C  0.40669588  0.04810107  0.01038389     0.81700
N311        N  0.44697634  0.05114548  0.01379116    -0.76600
C312        C  0.45454250  0.02101341  0.99471265     0.84100
N313        N  0.42101103  0.98725675  0.97208166    -0.76600
C314        C  0.38035685  0.98404752  0.96881442     0.84200
N315        N  0.37344849  0.01451750  0.98806659    -0.78300
C316        C  0.97364744  0.03752243  0.05435929     0.81700
N317        N  0.01892541  0.06077844  0.05166863    -0.76600
C318        C  0.04243525  0.03934921  0.05450747     0.84100
N319        N  0.02025705  0.99445220  0.06090589    -0.76600
C320        C  0.97525675  0.97106245  0.06449699     0.84200
N321        N  0.95225197  0.99280687  0.06155071    -0.78300
C322        C  0.63708395  0.34960308  0.38761668     0.81700
N323        N  0.61517850  0.30453257  0.38397460    -0.76600
C324        C  0.63798059  0.28249851  0.38230545     0.84100
N325        N  0.68317184  0.30603455  0.38514672    -0.76600
C326        C  0.70564562  0.35112072  0.38886314     0.84200
N327        N  0.68230429  0.37259279  0.39032206    -0.78300
C328        C  0.35790311  0.63773777  0.61430033     0.81700
N329        N  0.31283711  0.61113279  0.61565445    -0.76600
C330        C  0.28621369  0.62916957  0.61434016     0.84100
N331        N  0.30493050  0.67406788  0.61032895    -0.76600
C332        C  0.34994236  0.70103067  0.60880451     0.84200
N333        N  0.37620108  0.68264082  0.61046799    -0.78300
C334        C  0.02241311  0.97050583  0.94800483     0.81700
N335        N  0.97730424  0.94827430  0.94545609    -0.76600
C336        C  0.95453141  0.97020233  0.94694217     0.84100
N337        N  0.97736701  0.01529167  0.95020307    -0.76600
C338        C  0.02272195  0.03835631  0.95255627     0.84200
N339        N  0.04503457  0.01566608  0.95120777    -0.78300
C340        C  0.30493901  0.68419493  0.71979540     0.81700
N341        N  0.35016701  0.70701886  0.71939570    -0.76600
C342        C  0.37333725  0.68537589  0.71922245     0.84100
N343        N  0.35064362  0.64006883  0.71974757    -0.76600
C344        C  0.30531544  0.61648378  0.71995809     0.84200
N345        N  0.28269799  0.63884922  0.72041934    -0.78300
C346        C  0.69102616  0.31819906  0.28225928     0.81700
N347        N  0.64577630  0.29627812  0.27888329    -0.76600
C348        C  0.62379741  0.31919954  0.27892142     0.84100
N349        N  0.64739121  0.36432364  0.28180554    -0.76600
C350        C  0.69247643  0.38667072  0.28556454     0.84200
N351        N  0.71402249  0.36336219  0.28532248    -0.78300
C352        C  0.26982485  0.99807006  0.70584044    -0.11800
C353        C  0.24563530  0.96688406  0.72839968    -0.13400
C354        C  0.99202237  0.72281043  0.72020141    -0.11800
C355        C  0.02522229  0.74822041  0.74006584    -0.13400
C356        C  0.31134846  0.92250979  0.92523947    -0.11800
C357        C  0.34411608  0.94885198  0.94501392    -0.13400
C358        C  0.06886461  0.67245941  0.96171534    -0.11800
C359        C  0.09256760  0.70351958  0.93884063    -0.13400
C360        C  0.21396508  0.70779514  0.74902380    -0.11900
C361        C  0.23891119  0.75386191  0.75691447     0.10200
C362        C  0.28451094  0.77746818  0.74713857    -0.11900
C363        C  0.30531078  0.75511420  0.73238164    -0.11900
C364        C  0.28106372  0.70855049  0.72724375     0.10200
C365        C  0.23483612  0.68534961  0.73431966    -0.11900
H366        H  0.17862706  0.68872968  0.75574377     0.14200
H367        H  0.30461943  0.81304599  0.75239127     0.14200
H368        H  0.34089983  0.77419628  0.72688421     0.14200
H369        H  0.21508773  0.64954306  0.73036653     0.14200
C370        C  0.04730357  0.88866009  0.89742058    -0.11900
C371        C  0.09281261  0.90726608  0.90599114     0.10200
C372        C  0.11476578  0.94474285  0.93193743    -0.11900
C373        C  0.09166884  0.96484937  0.94723982    -0.11900
C374        C  0.04615939  0.94680260  0.93766083     0.10200
C375        C  0.02403244  0.90776300  0.91359628    -0.11900
H376        H  0.02987534  0.85960207  0.87760263     0.14200
H377        H  0.15002399  0.95948628  0.93875807     0.14200
H378        H  0.10949758  0.99493807  0.96563811     0.14200
H379        H  0.98911135  0.89312057  0.90532358     0.14200
C380        C  0.16034264  0.06390000  0.06980770    -0.11900
C381        C  0.18244405  0.10880604  0.08211073     0.10200
C382        C  0.15977971  0.13256634  0.07847701    -0.11900
C383        C  0.11484314  0.11081750  0.06623295    -0.11900
C384        C  0.09174837  0.06487493  0.05763762     0.10200
C385        C  0.11554480  0.04221209  0.05769426    -0.11900
H386        H  0.17700196  0.04478507  0.07146021     0.14200
H387        H  0.17603701  0.16736621  0.08715972     0.14200
H388        H  0.09758784  0.12937109  0.06607547     0.14200
H389        H  0.09897155  0.00701138  0.05044888     0.14200
C390        C  0.38954931  0.10195714  0.05317765    -0.11800
C391        C  0.39846053  0.07888363  0.03239828    -0.13400
C392        C  0.39893817  0.31949272  0.06714426    -0.11800
C393        C  0.40891745  0.35283151  0.04688169    -0.13400
C394        C  0.28065044  0.03314192  0.24586485    -0.11800
C395        C  0.27220811  0.99989306  0.26552578    -0.13400
C396        C  0.27595238  0.26995506  0.28880720    -0.11800
C397        C  0.28561747  0.24898097  0.26575552    -0.13400
C398        C  0.51908390  0.29549206  0.22167934    -0.11900
C399        C  0.48906346  0.25137243  0.23388045     0.10200
C400        C  0.50227516  0.23041952  0.26402123    -0.11900
C401        C  0.54605500  0.25272091  0.27987903    -0.11900
C402        C  0.57629569  0.29670399  0.26695051     0.10200
C403        C  0.56202052  0.31818968  0.23855718    -0.11900
H404        H  0.50940029  0.31225238  0.19861121     0.14200
H405        H  0.47947959  0.19629202  0.27373133     0.14200
H406        H  0.55654552  0.23549786  0.30153535     0.14200
H407        H  0.58481405  0.35189419  0.22769870     0.14200
C408        C  0.34586701  0.15362834  0.65445811    -0.15000
C409        C  0.32056779  0.16455250  0.67722517    -0.30200
H410        H  0.37209843  0.17879555  0.63478699     0.14000
H411        H  0.29430952  0.13924496  0.69678062     0.14600
C412        C  0.11580952  0.15554574  0.92776054    -0.11900
C413        C  0.09183444  0.17742369  0.91966500     0.10200
C414        C  0.04609291  0.15503638  0.92899308    -0.11900
C415        C  0.02417940  0.11070301  0.94301491    -0.11900
C416        C  0.04745003  0.08763647  0.94769554     0.10200
C417        C  0.09388003  0.11117218  0.94172524    -0.11900
H418        H  0.15119516  0.17198218  0.92142420     0.14200
H419        H  0.02674182  0.17110926  0.92373125     0.14200
H420        H  0.98851650  0.09385791  0.94796711     0.14200
H421        H  0.11299658  0.09466660  0.94556185     0.14200
C422        C  0.00074540  0.25920053  0.71686422    -0.11800
C423        C  0.03265211  0.26857888  0.73887482    -0.13400
C424        C  0.27242714  0.26519515  0.72659955    -0.11800
C425        C  0.24935074  0.27439960  0.74711383    -0.13400
C426        C  0.33797122  0.40800579  0.95404643    -0.11800
C427        C  0.30421045  0.39649875  0.93424688    -0.13400
C428        C  0.21358264  0.49932826  0.74753114    -0.11900
C429        C  0.23817040  0.47825563  0.75539068     0.10200
C430        C  0.28383623  0.50084974  0.74656538    -0.11900
C431        C  0.30528994  0.54509673  0.73228313    -0.11900
C432        C  0.28134219  0.56746616  0.72680801     0.10200
C433        C  0.23490442  0.54349764  0.73301311    -0.11900
H434        H  0.17827338  0.48225814  0.75444212     0.14200
H435        H  0.30328215  0.48502115  0.75279013     0.14200
H436        H  0.34102177  0.56239761  0.72767509     0.14200
H437        H  0.21536375  0.55951741  0.72885484     0.14200
C438        C  0.61516042  0.16538759  0.40096929    -0.11900
C439        C  0.56901794  0.14228703  0.40842918     0.10200
C440        C  0.54492507  0.16397031  0.40018341    -0.11900
C441        C  0.56705847  0.20896169  0.38851745    -0.11900
C442        C  0.61374423  0.23318739  0.38485754     0.10200
C443        C  0.63731173  0.21040168  0.38921380    -0.11900
H444        H  0.63458719  0.14941514  0.40638865     0.14200
H445        H  0.50920916  0.14686414  0.40487064     0.14200
H446        H  0.54776108  0.22528543  0.38474636     0.14200
H447        H  0.67322902  0.22788248  0.38594976     0.14200
C448        C  0.41210176  0.03954741  0.58419101    -0.11800
C449        C  0.38995424  0.04904285  0.60594141    -0.13400
C450        C  0.32962189  0.93062644  0.35947897    -0.11800
C451        C  0.36030598  0.93668492  0.38189369    -0.13400
C452        C  0.41148190  0.78103841  0.61062580    -0.11900
C453        C  0.36951764  0.74804782  0.59562426     0.10200
C454        C  0.34862339  0.75897158  0.56348005    -0.11900
C455        C  0.37023983  0.80142435  0.54509459    -0.11900
C456        C  0.41249221  0.83419613  0.55943426     0.10200
C457        C  0.43249013  0.82415002  0.59314916    -0.11900
H458        H  0.42827919  0.77317069  0.63520917     0.14200
H459        H  0.31656333  0.73392831  0.55096545     0.14200
H460        H  0.35412691  0.80858523  0.51933004     0.14200
H461        H  0.46513183  0.84902760  0.60465954     0.14200
C462        C  0.16517238  0.81104122  0.33723417    -0.15000
C463        C  0.17404694  0.84710402  0.31380408    -0.30200
H464        H  0.19175876  0.81019759  0.35468191     0.14000
H465        H  0.14746722  0.84780299  0.29620085     0.14600
C466        C  0.94693785  0.85170522  0.08165783    -0.11900
C467        C  0.91604141  0.83825037  0.11447749     0.10200
C468        C  0.90287343  0.86771044  0.12872850    -0.11900
C469        C  0.92053226  0.91012710  0.11072375    -0.11900
C470        C  0.95273536  0.92432070  0.07906255     0.10200
C471        C  0.96582965  0.89483069  0.06458943    -0.11900
H472        H  0.95742618  0.82936524  0.07018801     0.14200
H473        H  0.87876989  0.85780856  0.15374047     0.14200
H474        H  0.91032858  0.93250193  0.12273342     0.14200
H475        H  0.99077871  0.90527244  0.04030485     0.14200
C476        C  0.93004298  0.63298136  0.08628572    -0.11800
C477        C  0.95190880  0.62311228  0.06452899    -0.13400
C478        C  0.75411746  0.72871395  0.27763124    -0.11800
C479        C  0.72808986  0.73475345  0.29723289    -0.13400
C480        C  0.97433178  0.73323348  0.28640049    -0.11800
C481        C  0.00570491  0.73751491  0.30675581    -0.13400
C482        C  0.78752804  0.50330117  0.26350323    -0.11900
C483        C  0.76440649  0.52598029  0.25520500     0.10200
C484        C  0.71850899  0.50427840  0.26360601    -0.11900
C485        C  0.69556933  0.45972430  0.27676182    -0.11900
C486        C  0.71802631  0.43588640  0.28155198     0.10200
C487        C  0.76457918  0.45871520  0.27664413    -0.11900
H488        H  0.82303576  0.51930282  0.25796193     0.14200
H489        H  0.69986120  0.52108009  0.25825512     0.14200
H490        H  0.65982062  0.44336285  0.28093776     0.14200
H491        H  0.78303224  0.44153281  0.28061429     0.14200
C492        C  0.17807993  0.54321263  0.56540107    -0.11900
C493        C  0.14837852  0.55563152  0.58058485     0.10200
C494        C  0.16295757  0.58880369  0.61125071    -0.11900
C495        C  0.20772307  0.61162641  0.62416534    -0.11900
C496        C  0.23784748  0.60032347  0.60765652     0.10200
C497        C  0.22227425  0.56485289  0.57937467    -0.11900
H498        H  0.16735497  0.51762394  0.54177062     0.14200
H499        H  0.14047829  0.59891657  0.62316700     0.14200
H500        H  0.21919992  0.63906890  0.64583339     0.14200
H501        H  0.24499889  0.55590488  0.56582976     0.14200
C502        C  0.05315350  0.63015668  0.41573553    -0.11800
C503        C  0.06278028  0.66301159  0.39475629    -0.13400
C504        C  0.93916082  0.35022671  0.60410933    -0.11800
C505        C  0.93174311  0.31738428  0.62406721    -0.13400
C506        C  0.94564550  0.56828506  0.61322238    -0.11800
C507        C  0.93733283  0.59208294  0.63368088    -0.13400
C508        C  0.82026289  0.44276961  0.42281202    -0.11900
C509        C  0.84173233  0.41845952  0.43106353     0.10200
C510        C  0.82009796  0.37322978  0.41991443    -0.11900
C511        C  0.77681861  0.35201590  0.40356649    -0.11900
C512        C  0.75408416  0.37549523  0.39816896     0.10200
C513        C  0.77686675  0.42150348  0.40647669    -0.11900
H514        H  0.83630271  0.47783755  0.43044259     0.14200
H515        H  0.83595402  0.35368000  0.42523958     0.14200
H516        H  0.76051276  0.31667841  0.39702862     0.14200
H517        H  0.76053166  0.44073180  0.40214582     0.14200
C518        C  0.53125042  0.51841673  0.01341483    -0.15000
C519        C  0.49269162  0.50801635  0.99402687    -0.30200
H520        H  0.53345413  0.49330827  0.03223929     0.14000
H521        H  0.49064444  0.53321998  0.97521674     0.14600
C522        C  0.68547442  0.62171491  0.05323628    -0.11800
C523        C  0.71743770  0.63098823  0.07522710    -0.13400
C524        C  0.84890629  0.15989090  0.66915418    -0.15000
C525        C  0.81174433  0.15008004  0.64747265    -0.30200
H526        H  0.84976105  0.13430047  0.68841174     0.14000
H527        H  0.81087975  0.17554727  0.62802315     0.14600
C528        C  0.62655197  0.04143315  0.58195958    -0.11800
C529        C  0.65864437  0.04999237  0.60335239    -0.13400
C530        C  0.82637694  0.67594256  0.67944365    -0.15000
C531        C  0.83719729  0.64712803  0.66361584    -0.30200
H532        H  0.85135697  0.70441868  0.69704226     0.14000
H533        H  0.81220538  0.61861065  0.64607611     0.14600
C534        C  0.85073473  0.89707128  0.88468421    -0.11900
C535        C  0.82015176  0.90740212  0.90146303     0.10200
C536        C  0.83297445  0.93666722  0.93559223    -0.11900
C537        C  0.87671697  0.95691210  0.95140081    -0.11900
C538        C  0.90729630  0.94663831  0.93421743     0.10200
C539        C  0.89363950  0.91596429  0.90128336    -0.11900
H540        H  0.84141833  0.87436855  0.85855635     0.14200
H541        H  0.80972707  0.94502292  0.94891207     0.14200
H542        H  0.88677787  0.98070955  0.97665983     0.14200
H543        H  0.91679414  0.90797796  0.88709233     0.14200
C544        C  0.71488803  0.74992548  0.73567149    -0.11800
C545        C  0.72424969  0.72673443  0.71556814    -0.13400
C546        C  0.71961915  0.96590375  0.72603744    -0.11800
C547        C  0.72715779  0.99662783  0.70269152    -0.13400
C548        C  0.61550348  0.70398997  0.93777386    -0.11800
C549        C  0.61006222  0.67314879  0.96002975    -0.13400
C550        C  0.44414673  0.75674109  0.73451964    -0.11900
C551        C  0.42214502  0.71067278  0.72660379     0.10200
C552        C  0.44604021  0.68827782  0.73128810    -0.11900
C553        C  0.48979369  0.71068447  0.74670093    -0.11900
C554        C  0.51059160  0.75597077  0.75755563     0.10200
C555        C  0.48784915  0.77911137  0.74990020    -0.11900
H556        H  0.42694179  0.77520295  0.73087450     0.14200
H557        H  0.43029751  0.65293518  0.72496995     0.14200
H558        H  0.50673331  0.69209533  0.75150599     0.14200
H559        H  0.50312559  0.81415216  0.75738184     0.14200
C560        C  0.41870185  0.35453111  0.60872124    -0.11800
C561        C  0.39505091  0.32195858  0.62998267    -0.13400
C562        C  0.35524522  0.41108263  0.41247311    -0.11800
C563        C  0.32300845  0.38748472  0.39057242    -0.13400
C564        C  0.63668259  0.57239116  0.60686856    -0.11800
C565        C  0.66974771  0.59777995  0.62696162    -0.13400
C566        C  0.57790046  0.62707753  0.40985190    -0.11800
C567        C  0.60080536  0.66009148  0.38891459    -0.13400
C568        C  0.54443980  0.36876146  0.42067906    -0.11900
C569        C  0.56813346  0.41493868  0.42790319     0.10200
C570        C  0.61305548  0.44010948  0.41581184    -0.11900
C571        C  0.63475537  0.41912504  0.39987914    -0.11900
C572        C  0.61202096  0.37251123  0.39580530     0.10200
C573        C  0.56616635  0.34773933  0.40472063    -0.11900
H574        H  0.50963610  0.34851953  0.42916514     0.14200
H575        H  0.63203977  0.47588184  0.42024048     0.14200
H576        H  0.66990606  0.43926835  0.39261817     0.14200
H577        H  0.54753783  0.31179303  0.40157781     0.14200
C578        C  0.44289834  0.61595246  0.56630832    -0.11900
C579        C  0.42961598  0.57301039  0.58155860     0.10200
C580        C  0.39577978  0.55328708  0.61168669    -0.11900
C581        C  0.37340999  0.57517827  0.62414617    -0.11900
C582        C  0.38570908  0.61758125  0.60761818     0.10200
C583        C  0.42165221  0.63833030  0.57970379    -0.11900
H584        H  0.46894092  0.63166533  0.54301181     0.14200
H585        H  0.38490453  0.51999538  0.62356083     0.14200
H586        H  0.34559371  0.55843616  0.64548626     0.14200
H587        H  0.43151762  0.67072567  0.56605532     0.14200
C588        C  0.51053281  0.99815902  0.98223392    -0.15000
C589        C  0.49924259  0.02583269  0.99977615    -0.30200
H590        H  0.48616224  0.97077819  0.96312353     0.14000
H591        H  0.52369729  0.05332782  0.01872628     0.14600
C592        C  0.61990689  0.92248957  0.92758282    -0.11800
C593        C  0.61246809  0.94688499  0.94806472    -0.13400
C594        C  0.99546427  0.51797063  0.01674528    -0.15000
C595        C  0.02096445  0.50622333  0.99528226    -0.30200
H596        H  0.96911255  0.49339155  0.03671345     0.14000
H597        H  0.04749214  0.53079431  0.97546165     0.14600
C598        C  0.06498684  0.39971721  0.95194477    -0.11800
C599        C  0.08643435  0.38805911  0.93178133    -0.13400
C600        C  0.67796222  0.85099308  0.32255251    -0.15000
C601        C  0.65037610  0.81243186  0.34262838    -0.30200
H602        H  0.70587508  0.85393714  0.30500650     0.14000
H603        H  0.62252125  0.80955294  0.36023635     0.14600
C604        C  0.59838624  0.92670556  0.36730610    -0.11800
C605        C  0.57260457  0.93256197  0.38748592    -0.13400
C606        C  0.17044747  0.31515696  0.32824893    -0.15000
C607        C  0.15746130  0.34050075  0.34788916    -0.30200
H608        H  0.14736223  0.28961208  0.30680575     0.14000
H609        H  0.18058026  0.36607454  0.36929498     0.14600
C610        C  0.05424546  0.38990759  0.38339012    -0.11800
C611        C  0.04438202  0.41179113  0.40488674    -0.13400
C612        C  0.69522898  0.09814544  0.06296929    -0.11800
C613        C  0.66379385  0.07283369  0.04114032    -0.13400
C614        C  0.94280021  0.35112269  0.04839637    -0.11800
C615        C  0.91735565  0.31933503  0.06966979    -0.13400
C616        C  0.72744223  0.00390118  0.27755356    -0.11800
C617        C  0.75096556  0.03740724  0.25734335    -0.13400
C618        C  0.97350218  0.24910784  0.26098448    -0.11800
C619        C  0.00594826  0.27129301  0.28316469    -0.13400
C620        C  0.71387551  0.22726373  0.25200815    -0.11900
C621        C  0.75987812  0.25192142  0.24375539     0.10200
C622        C  0.78396608  0.29738548  0.25403646    -0.11900
C623        C  0.76196811  0.31837467  0.26946129    -0.11900
C624        C  0.71538764  0.29436787  0.27471216     0.10200
C625        C  0.69188451  0.24823549  0.26737166    -0.11900
H626        H  0.69441568  0.19201149  0.24502711     0.14200
H627        H  0.81951507  0.31721787  0.24851816     0.14200
H628        H  0.78123946  0.35390883  0.27519476     0.14200
H629        H  0.65610710  0.22862294  0.27158266     0.14200
C630        C  0.94806024  0.12991874  0.06804389    -0.11900
C631        C  0.90306843  0.10513788  0.07943893     0.10200
C632        C  0.87981077  0.05867128  0.07585693    -0.11900
C633        C  0.90214144  0.03680093  0.06403323    -0.11900
C634        C  0.94834993  0.06111951  0.05646968     0.10200
C635        C  0.97063136  0.10805188  0.05650940    -0.11900
H636        H  0.96641987  0.16591293  0.07090630     0.14200
H637        H  0.84501921  0.03917916  0.08464560     0.14200
H638        H  0.88372569  0.00067170  0.06362408     0.14200
H639        H  0.00605199  0.12779485  0.05034150     0.14200
loop_ 
_geom_bond_atom_site_label_1 
_geom_bond_atom_site_label_2 
_geom_bond_distance 
_geom_bond_site_symmetry_2 
_ccdc_geom_bond_type 
Zn1           O5   1.973       .  S
Zn1           O6   2.008       .  S
Zn1          O10   2.047       .  S
Zn1          O17   2.061       .  S
Zn2           O5   1.980       .  S
Zn2           O7   2.050       .  S
Zn2           O9   2.021       .  S
Zn2          O13   2.036       .  S
Zn3           O5   1.964       .  S
Zn3           O8   2.013       .  S
Zn3          O11   2.032       .  S
Zn3          O14   2.006       .  S
Zn4           O5   1.969       .  S
Zn4          O12   2.026       .  S
Zn4          O15   2.028       .  S
Zn4          O16   2.035       .  S
O6           C18   1.274       .  A
O7           C19   1.275       .  A
O8           C20   1.271       .  A
O9           C18   1.273       .  A
O10          C20   1.275       .  A
O11          C19   1.272       .  A
O12          C21   1.276       .  A
O13          C22   1.275       .  A
O14          C21   1.274       .  A
O15          C22   1.273       .  A
O16          C23   1.274       .  A
O17          C23   1.276       .  A
C18         C631   1.462       .  S
C19         C612   1.450       .  S
C20         C617   1.443       .  S
C21         C621   1.481       .  S
C22         C615   1.443       .  S
C23         C618   1.453       .  S
C24         C610   1.437       .  S
C24          N25   1.354       .  A
C24          N29   1.355       .  A
N25          C26   1.357       .  A
C26         C619   1.452       .  S
C26          N27   1.368       .  A
N27          C28   1.371       .  A
C28          N29   1.359       .  A
C28         C607   1.490       .  S
C30         C604   1.445       .  S
C30          N31   1.361       .  A
C30          N35   1.358       .  A
N31          C32   1.365       .  A
C32          N33   1.361       .  A
C32         C600   1.486       .  S
N33          C34   1.358       .  A
C34         C616   1.444   1_565  S
C34          N35   1.357       .  A
C36         C598   1.443       .  S
C36          N37   1.355   1_556  A
C36          N41   1.360       .  A
N37          C38   1.356   1_455  A
C38         C614   1.443       .  S
C38          N39   1.361       .  A
N39          C40   1.365   1_654  A
C40          N41   1.363       .  A
C40         C595   1.488       .  S
C42         C593   1.439       .  S
C42          N43   1.355       .  A
C42          N47   1.357   1_565  A
N43          C44   1.358   1_565  A
C44          N45   1.367   1_556  A
C44         C588   1.485   1_545  S
N45          C46   1.364       .  A
C46         C613   1.450       .  S
C46          N47   1.359   1_554  A
Zn48         O52   1.966       .  S
Zn48         O53   2.016       .  S
Zn48         O57   2.031       .  S
Zn48         O64   2.017       .  S
Zn49         O52   1.964       .  S
Zn49         O54   2.011       .  S
Zn49         O56   2.004       .  S
Zn49         O60   2.028       .  S
Zn50         O52   1.972       .  S
Zn50         O55   2.062       .  S
Zn50         O58   2.035       .  S
Zn50         O61   2.000       .  S
Zn51         O52   1.983       .  S
Zn51         O59   2.040       .  S
Zn51         O62   2.067       .  S
Zn51         O63   2.047       .  S
O53          C65   1.274       .  A
O54          C66   1.271       .  A
O55          C67   1.276       .  A
O56          C65   1.274       .  A
O57          C67   1.273       .  A
O58          C66   1.273       .  A
O59          C68   1.276       .  A
O60          C69   1.272       .  A
O61          C68   1.274       .  A
O62          C69   1.278       .  A
O63          C70   1.277       .  A
O64          C70   1.272       .  A
C65         C569   1.478       .  S
C66         C566   1.439       .  S
C67         C562   1.453       .  S
C68         C579   1.470       .  S
C69         C564   1.452       .  S
C70         C560   1.443       .  S
Zn71         O75   1.974       .  S
Zn71         O76   2.041       .  S
Zn71         O80   2.026       .  S
Zn71         O87   2.020       .  S
Zn72         O75   1.962       .  S
Zn72         O77   2.012       .  S
Zn72         O79   2.021       .  S
Zn72         O83   2.012       .  S
Zn73         O75   1.959       .  S
Zn73         O78   2.022       .  S
Zn73         O81   2.015       .  S
Zn73         O84   2.013       .  S
Zn74         O75   1.968       .  S
Zn74         O82   2.040       .  S
Zn74         O85   2.028       .  S
Zn74         O86   2.006       .  S
O76          C88   1.275       .  A
O77          C89   1.274       .  A
O78          C90   1.273       .  A
O79          C88   1.272       .  A
O80          C90   1.273       .  A
O81          C89   1.275       .  A
O82          C91   1.274       .  A
O83          C92   1.271       .  A
O84          C91   1.271       .  A
O85          C92   1.272       .  A
O86          C93   1.274       .  A
O87          C93   1.273       .  A
C88         C548   1.442       .  S
C89         C554   1.480       .  S
C90         C592   1.439       .  S
C91         C546   1.440       .  S
C92         C544   1.437       .  S
C93         C535   1.470       .  S
C94         C545   1.438       .  S
C94          N95   1.356       .  A
C94          N99   1.355       .  A
N95          C96   1.359       .  A
C96          N97   1.370       .  A
C96         C530   1.490       .  S
N97          C98   1.367       .  A
C98         C565   1.451       .  S
C98          N99   1.357       .  A
C100        C529   1.432       .  S
C100        N101   1.355       .  A
C100        N105   1.356       .  A
N101        C102   1.357       .  A
C102        N103   1.364       .  A
C102        C525   1.478       .  S
N103        C104   1.359       .  A
C104        C547   1.440   1_545  S
C104        N105   1.356       .  A
C106        C522   1.436       .  S
C106        N107   1.356       .  A
C106        N111   1.357       .  A
N107        C108   1.356   1_554  A
C108        C549   1.443       .  S
C108        N109   1.360       .  A
N109        C110   1.365   1_556  A
C110        N111   1.359       .  A
C110        C518   1.482       .  S
Zn112       O116   1.960       .  S
Zn112       O117   2.020       .  S
Zn112       O121   2.011       .  S
Zn112       O128   2.016       .  S
Zn113       O116   1.957       .  S
Zn113       O118   2.008       .  S
Zn113       O120   2.005       .  S
Zn113       O124   2.012       .  S
Zn114       O116   1.966   1_455  S
Zn114       O119   2.038       .  S
Zn114       O122   2.026       .  S
Zn114       O125   2.007       .  S
Zn115       O116   1.975   1_455  S
Zn115       O123   2.029       .  S
Zn115       O126   2.039   1_455  S
Zn115       O127   2.036   1_455  S
O117        C129   1.274       .  A
O118        C130   1.270   1_655  A
O119        C131   1.274       .  A
O120        C129   1.273       .  A
O121        C131   1.271   1_655  A
O122        C130   1.272       .  A
O123        C132   1.274       .  A
O124        C133   1.271       .  A
O125        C132   1.273       .  A
O126        C133   1.275       .  A
O127        C134   1.274       .  A
O128        C134   1.272       .  A
C129        C509   1.480       .  S
C130        C611   1.436       .  S
C131        C502   1.439       .  S
C132        C493   1.470       .  S
C133        C504   1.439       .  S
C134        C506   1.440       .  S
Zn135       O139   1.975       .  S
Zn135       O140   2.022       .  S
Zn135       O144   2.049       .  S
Zn135       O151   2.052       .  S
Zn136       O139   1.972       .  S
Zn136       O141   2.037       .  S
Zn136       O143   2.018       .  S
Zn136       O147   2.028       .  S
Zn137       O139   1.957       .  S
Zn137       O142   1.987       .  S
Zn137       O145   2.026       .  S
Zn137       O148   2.010       .  S
Zn138       O139   1.957       .  S
Zn138       O146   2.011       .  S
Zn138       O149   2.005       .  S
Zn138       O150   2.016       .  S
O140        C152   1.275       .  A
O141        C153   1.273       .  A
O142        C154   1.269       .  A
O143        C152   1.274       .  A
O144        C154   1.277       .  A
O145        C153   1.272       .  A
O146        C155   1.273       .  A
O147        C156   1.274       .  A
O148        C155   1.273       .  A
O149        C156   1.271       .  A
O150        C157   1.271       .  A
O151        C157   1.275       .  A
C152        C467   1.472       .  S
C153        C476   1.444       .  S
C154        C480   1.434       .  S
C155        C483   1.479       .  S
C156        C523   1.435       .  S
C157        C478   1.446       .  S
C158        C479   1.446       .  S
C158        N159   1.357       .  A
C158        N163   1.362       .  A
N159        C160   1.356       .  A
C160        C567   1.440       .  S
C160        N161   1.357       .  A
N161        C162   1.361       .  A
C162        N163   1.366       .  A
C162        C601   1.485       .  S
C164        C481   1.436       .  S
C164        N165   1.354       .  A
C164        N169   1.357       .  A
N165        C166   1.359       .  A
C166        N167   1.360       .  A
C166        C462   1.475       .  S
N167        C168   1.358       .  A
C168        C503   1.439       .  S
C168        N169   1.358       .  A
Zn170       O174   1.956   1_545  S
Zn170       O175   1.993   1_545  S
Zn170       O179   2.009       .  S
Zn170       O186   2.020       .  S
Zn171       O174   1.971       .  S
Zn171       O176   2.057       .  S
Zn171       O178   2.034       .  S
Zn171       O182   2.025       .  S
Zn172       O174   1.958   1_545  S
Zn172       O177   2.012       .  S
Zn172       O180   2.004   1_545  S
Zn172       O183   2.004       .  S
Zn173       O174   1.969       .  S
Zn173       O181   2.015   1_565  S
Zn173       O184   2.021       .  S
Zn173       O185   2.040   1_565  S
O175        C187   1.269       .  A
O176        C188   1.276       .  A
O177        C189   1.273       .  A
O178        C187   1.274       .  A
O179        C189   1.273       .  A
O180        C188   1.270       .  A
O181        C190   1.272       .  A
O182        C191   1.276       .  A
O183        C190   1.270       .  A
O184        C191   1.273       .  A
O185        C192   1.274       .  A
O186        C192   1.272       .  A
C187        C451   1.432       .  S
C188        C605   1.444       .  S
C189        C439   1.479       .  S
C190        C528   1.431       .  S
C191        C456   1.474       .  S
C192        C448   1.443       .  S
Zn193       O197   1.960       .  S
Zn193       O198   2.026       .  S
Zn193       O202   2.023       .  S
Zn193       O209   2.010       .  S
Zn194       O197   1.965       .  S
Zn194       O199   2.022       .  S
Zn194       O201   2.032       .  S
Zn194       O205   2.010       .  S
Zn195       O197   1.959       .  S
Zn195       O200   2.018       .  S
Zn195       O203   2.002       .  S
Zn195       O206   2.015       .  S
Zn196       O197   1.972       .  S
Zn196       O204   2.028       .  S
Zn196       O207   2.028       .  S
Zn196       O208   2.018       .  S
O198        C210   1.273       .  A
O199        C211   1.272       .  A
O200        C212   1.274       .  A
O201        C210   1.273       .  A
O202        C212   1.275       .  A
O203        C211   1.271       .  A
O204        C213   1.273       .  A
O205        C214   1.272       .  A
O206        C213   1.271       .  A
O207        C214   1.273       .  A
O208        C215   1.273       .  A
O209        C215   1.272       .  A
C210        C599   1.443       .  S
C211        C427   1.431       .  S
C212        C413   1.484       .  S
C213        C425   1.438       .  S
C214        C429   1.465       .  S
C215        C423   1.432       .  S
C216        C424   1.438       .  S
C216        N217   1.357       .  A
C216        N221   1.354       .  A
N217        C218   1.361       .  A
C218        N219   1.366       .  A
C218        C409   1.485       .  S
N219        C220   1.363       .  A
C220        C561   1.442       .  S
C220        N221   1.356       .  A
C222        C505   1.439       .  S
C222        N223   1.360       .  A
C222        N227   1.355       .  A
N223        C224   1.364       .  A
C224        N225   1.358       .  A
C224        C524   1.477       .  S
N225        C226   1.355       .  A
C226        C422   1.432   1_655  S
C226        N227   1.354       .  A
Zn228       O232   1.974       .  S
Zn228       O233   2.032       .  S
Zn228       O237   2.028       .  S
Zn228       O244   2.022       .  S
Zn229       O232   1.961       .  S
Zn229       O234   2.018       .  S
Zn229       O236   2.017       .  S
Zn229       O240   2.028       .  S
Zn230       O232   1.964       .  S
Zn230       O235   2.006       .  S
Zn230       O238   2.022       .  S
Zn230       O241   2.034       .  S
Zn231       O232   1.955       .  S
Zn231       O239   2.003       .  S
Zn231       O242   2.009       .  S
Zn231       O243   2.015       .  S
O233        C245   1.274       .  A
O234        C246   1.272       .  A
O235        C247   1.273       .  A
O236        C245   1.272       .  A
O237        C247   1.273       .  A
O238        C246   1.272       .  A
O239        C248   1.270       .  A
O240        C249   1.275       .  A
O241        C248   1.274       .  A
O242        C249   1.273       .  A
O243        C250   1.271       .  A
O244        C250   1.273       .  A
C245        C397   1.438       .  S
C246        C392   1.437       .  S
C247        C399   1.470       .  S
C248        C390   1.436       .  S
C249        C381   1.483       .  S
C250        C394   1.436       .  S
C251        C396   1.439       .  S
C251        N252   1.356       .  A
C251        N256   1.355       .  A
N252        C253   1.358       .  A
C253        C563   1.453       .  S
C253        N254   1.367       .  A
N254        C255   1.370       .  A
C255        N256   1.359       .  A
C255        C606   1.490       .  S
C257        C450   1.433       .  S
C257        N258   1.356       .  A
C257        N262   1.355       .  A
N258        C259   1.356       .  A
C259        C395   1.436       .  S
C259        N260   1.357       .  A
N260        C261   1.360       .  A
C261        N262   1.359       .  A
C261        C463   1.474       .  S
C263        C393   1.437       .  S
C263        N264   1.362       .  A
C263        N268   1.353       .  A
N264        C265   1.366   1_554  A
C265        N266   1.359       .  A
C265        C519   1.480       .  S
N266        C267   1.355       .  A
C267        C426   1.432       .  S
C267        N268   1.352   1_556  A
Zn269       O273   1.980       .  S
Zn269       O274   2.048       .  S
Zn269       O278   2.024       .  S
Zn269       O285   2.049       .  S
Zn270       O273   1.967       .  S
Zn270       O275   2.025       .  S
Zn270       O277   2.017       .  S
Zn270       O281   2.015       .  S
Zn271       O273   1.976       .  S
Zn271       O276   2.009       .  S
Zn271       O279   2.058       .  S
Zn271       O282   2.055       .  S
Zn272       O273   1.962       .  S
Zn272       O280   2.011       .  S
Zn272       O283   2.012       .  S
Zn272       O284   2.030       .  S
O274        C286   1.276       .  A
O275        C287   1.272       .  A
O276        C288   1.274       .  A
O277        C286   1.272       .  A
O278        C288   1.274       .  A
O279        C287   1.276       .  A
O280        C289   1.271       .  A
O281        C290   1.274       .  A
O282        C289   1.276       .  A
O283        C290   1.275       .  A
O284        C291   1.272       .  A
O285        C291   1.275       .  A
C286        C359   1.443       .  S
C287        C355   1.450       .  S
C288        C371   1.466       .  S
C289        C353   1.444       .  S
C290        C361   1.480       .  S
C291        C356   1.449       .  S
C292        C507   1.440       .  S
C292        N293   1.356       .  A
C292        N297   1.356       .  A
N293        C294   1.360       .  A
C294        N295   1.369       .  A
C294        C531   1.490       .  S
N295        C296   1.366       .  A
C296        C354   1.450       .  S
C296        N297   1.358       .  A
C298        C449   1.443       .  S
C298        N299   1.357       .  A
C298        N303   1.359       .  A
N299        C300   1.358       .  A
C300        C352   1.445   1_545  S
C300        N301   1.361       .  A
N301        C302   1.365       .  A
C302        N303   1.362       .  A
C302        C408   1.487       .  S
C304        C477   1.444       .  S
C304        N305   1.359       .  A
C304        N309   1.356   1_655  A
N305        C306   1.362   1_655  A
C306        N307   1.365   1_554  A
C306        C594   1.487   1_455  S
N307        C308   1.362       .  A
C308        C358   1.444       .  S
C308        N309   1.357   1_556  A
C310        C391   1.436       .  S
C310        N311   1.355       .  A
C310        N315   1.356   1_554  A
N311        C312   1.358   1_554  A
C312        N313   1.368   1_545  A
C312        C589   1.485       .  S
N313        C314   1.365       .  A
C314        C357   1.448       .  S
C314        N315   1.357   1_565  A
C316        C634   1.481       .  S
C316        N317   1.361   1_655  A
C316        N321   1.358   1_545  A
N317        C318   1.361       .  A
C318        C384   1.481       .  S
C318        N319   1.359   1_545  A
N319        C320   1.355   1_455  A
C320        C470   1.472       .  S
C320        N321   1.355       .  A
C322        C572   1.479       .  S
C322        N323   1.357       .  A
C322        N327   1.358       .  A
N323        C324   1.358       .  A
C324        C442   1.479       .  S
C324        N325   1.357       .  A
N325        C326   1.358       .  A
C326        C512   1.480       .  S
C326        N327   1.357       .  A
C328        C582   1.475       .  S
C328        N329   1.358       .  A
C328        N333   1.359       .  A
N329        C330   1.358       .  A
C330        C496   1.472       .  S
C330        N331   1.358       .  A
N331        C332   1.358       .  A
C332        C453   1.473       .  S
C332        N333   1.357       .  A
C334        C374   1.477       .  S
C334        N335   1.354   1_455  A
C334        N339   1.358   1_565  A
N335        C336   1.353       .  A
C336        C538   1.470       .  S
C336        N337   1.356   1_565  A
N337        C338   1.361   1_655  A
C338        C416   1.483       .  S
C338        N339   1.362       .  A
C340        C364   1.481       .  S
C340        N341   1.356       .  A
C340        N345   1.359       .  A
N341        C342   1.355       .  A
C342        C551   1.481       .  S
C342        N343   1.358       .  A
N343        C344   1.359       .  A
C344        C432   1.483       .  S
C344        N345   1.360       .  A
C346        C624   1.481       .  S
C346        N347   1.361       .  A
C346        N351   1.358       .  A
N347        C348   1.358       .  A
C348        C402   1.473       .  S
C348        N349   1.356       .  A
N349        C350   1.356       .  A
C350        C486   1.479       .  S
C350        N351   1.357       .  A
C352        C353   1.211       .  T
C354        C355   1.215   1_655  T
C356        C357   1.214       .  T
C358        C359   1.211       .  T
C360        C361   1.406       .  A
C360        C365   1.399       .  A
C360        H366   1.083       .  S
C361        C362   1.404       .  A
C362        C363   1.395       .  A
C362        H367   1.083       .  S
C363        C364   1.407       .  A
C363        H368   1.083       .  S
C364        C365   1.406       .  A
C365        H369   1.083       .  S
C370        C371   1.398       .  A
C370        C375   1.391       .  A
C370        H376   1.084       .  S
C371        C372   1.404       .  A
C372        C373   1.403       .  A
C372        H377   1.083       .  S
C373        C374   1.407       .  A
C373        H378   1.083       .  S
C374        C375   1.407       .  A
C375        H379   1.083   1_455  S
C380        C381   1.406       .  A
C380        C385   1.395       .  A
C380        H386   1.083       .  S
C381        C382   1.407       .  A
C382        C383   1.400       .  A
C382        H387   1.083       .  S
C383        C384   1.406       .  A
C383        H388   1.083       .  S
C384        C385   1.405       .  A
C385        H389   1.083       .  S
C390        C391   1.206       .  T
C392        C393   1.207       .  T
C394        C395   1.206   1_545  T
C396        C397   1.208       .  T
C398        C399   1.401       .  A
C398        C403   1.392       .  A
C398        H404   1.084       .  S
C399        C400   1.405       .  A
C400        C401   1.403       .  A
C400        H405   1.083       .  S
C401        C402   1.405       .  A
C401        H406   1.083       .  S
C402        C403   1.403       .  A
C403        H407   1.083       .  S
C408        C409   1.347       .  D
C408        H410   1.086       .  S
C409        H411   1.086       .  S
C412        C413   1.406       .  A
C412        C417   1.398       .  A
C412        H418   1.083       .  S
C413        C414   1.406       .  A
C414        C415   1.398       .  A
C414        H419   1.083       .  S
C415        C416   1.406       .  A
C415        H420   1.083   1_455  S
C416        C417   1.406       .  A
C417        H421   1.083       .  S
C422        C423   1.204       .  T
C424        C425   1.208       .  T
C426        C427   1.204       .  T
C428        C429   1.400       .  A
C428        C433   1.398       .  A
C428        H434   1.083       .  S
C429        C430   1.400       .  A
C430        C431   1.398       .  A
C430        H435   1.083       .  S
C431        C432   1.409       .  A
C431        H436   1.083       .  S
C432        C433   1.408       .  A
C433        H437   1.083       .  S
C438        C439   1.405       .  A
C438        C443   1.397       .  A
C438        H444   1.083       .  S
C439        C440   1.405       .  A
C440        C441   1.395       .  A
C440        H445   1.083       .  S
C441        C442   1.405       .  A
C441        H446   1.083       .  S
C442        C443   1.406       .  A
C443        H447   1.083       .  S
C448        C449   1.210       .  T
C450        C451   1.204       .  T
C452        C453   1.405       .  A
C452        C457   1.402       .  A
C452        H458   1.084       .  S
C453        C454   1.404       .  A
C454        C455   1.395       .  A
C454        H459   1.083       .  S
C455        C456   1.402       .  A
C455        H460   1.083       .  S
C456        C457   1.406       .  A
C457        H461   1.083       .  S
C462        C463   1.346       .  D
C462        H464   1.086       .  S
C463        H465   1.086       .  S
C466        C467   1.405       .  A
C466        C471   1.401       .  A
C466        H472   1.083       .  S
C467        C468   1.402       .  A
C468        C469   1.395       .  A
C468        H473   1.084       .  S
C469        C470   1.404       .  A
C469        H474   1.083       .  S
C470        C471   1.404       .  A
C471        H475   1.084       .  S
C476        C477   1.211       .  T
C478        C479   1.212       .  T
C480        C481   1.206   1_655  T
C482        C483   1.405       .  A
C482        C487   1.396       .  A
C482        H488   1.083       .  S
C483        C484   1.405       .  A
C484        C485   1.396       .  A
C484        H489   1.083       .  S
C485        C486   1.406       .  A
C485        H490   1.083       .  S
C486        C487   1.406       .  A
C487        H491   1.083       .  S
C492        C493   1.402       .  A
C492        C497   1.395       .  A
C492        H498   1.083       .  S
C493        C494   1.404       .  A
C494        C495   1.401       .  A
C494        H499   1.083       .  S
C495        C496   1.405       .  A
C495        H500   1.083       .  S
C496        C497   1.403       .  A
C497        H501   1.083       .  S
C502        C503   1.208       .  T
C504        C505   1.208       .  T
C506        C507   1.208       .  T
C508        C509   1.405       .  A
C508        C513   1.398       .  A
C508        H514   1.083       .  S
C509        C510   1.405       .  A
C510        C511   1.395       .  A
C510        H515   1.083       .  S
C511        C512   1.405       .  A
C511        H516   1.083       .  S
C512        C513   1.407       .  A
C513        H517   1.083       .  S
C518        C519   1.343   1_554  D
C518        H520   1.086       .  S
C519        H521   1.086       .  S
C522        C523   1.206       .  T
C524        C525   1.342       .  D
C524        H526   1.086       .  S
C525        H527   1.086       .  S
C528        C529   1.204       .  T
C530        C531   1.344       .  D
C530        H532   1.086       .  S
C531        H533   1.086       .  S
C534        C535   1.400       .  A
C534        C539   1.390       .  A
C534        H540   1.084       .  S
C535        C536   1.406       .  A
C536        C537   1.403       .  A
C536        H541   1.083       .  S
C537        C538   1.404       .  A
C537        H542   1.083       .  S
C538        C539   1.404       .  A
C539        H543   1.083       .  S
C544        C545   1.207       .  T
C546        C547   1.209       .  T
C548        C549   1.210       .  T
C550        C551   1.407       .  A
C550        C555   1.396       .  A
C550        H556   1.083       .  S
C551        C552   1.405       .  A
C552        C553   1.397       .  A
C552        H557   1.083       .  S
C553        C554   1.406       .  A
C553        H558   1.083       .  S
C554        C555   1.405       .  A
C555        H559   1.083       .  S
C560        C561   1.210       .  T
C562        C563   1.216       .  T
C564        C565   1.216       .  T
C566        C567   1.208       .  T
C568        C569   1.405       .  A
C568        C573   1.397       .  A
C568        H574   1.083       .  S
C569        C570   1.405       .  A
C570        C571   1.395       .  A
C570        H575   1.083       .  S
C571        C572   1.405       .  A
C571        H576   1.083       .  S
C572        C573   1.406       .  A
C573        H577   1.083       .  S
C578        C579   1.402       .  A
C578        C583   1.393       .  A
C578        H584   1.083       .  S
C579        C580   1.403       .  A
C580        C581   1.402       .  A
C580        H585   1.083       .  S
C581        C582   1.407       .  A
C581        H586   1.083       .  S
C582        C583   1.404       .  A
C583        H587   1.083       .  S
C588        C589   1.343   1_565  D
C588        H590   1.086       .  S
C589        H591   1.086   1_556  S
C592        C593   1.208       .  T
C594        C595   1.348   1_654  D
C594        H596   1.086       .  S
C595        H597   1.086       .  S
C598        C599   1.210       .  T
C600        C601   1.346       .  D
C600        H602   1.086       .  S
C601        H603   1.086       .  S
C604        C605   1.211       .  T
C606        C607   1.343       .  D
C606        H608   1.086       .  S
C607        H609   1.086       .  S
C610        C611   1.207       .  T
C612        C613   1.214       .  T
C614        C615   1.210       .  T
C616        C617   1.211       .  T
C618        C619   1.216   1_655  T
C620        C621   1.406       .  A
C620        C625   1.396       .  A
C620        H626   1.083       .  S
C621        C622   1.405       .  A
C622        C623   1.397       .  A
C622        H627   1.083       .  S
C623        C624   1.408       .  A
C623        H628   1.083       .  S
C624        C625   1.404       .  A
C625        H629   1.083       .  S
C630        C631   1.401       .  A
C630        C635   1.399       .  A
C630        H636   1.083       .  S
C631        C632   1.398       .  A
C632        C633   1.395       .  A
C632        H637   1.083       .  S
C633        C634   1.408       .  A
C633        H638   1.083       .  S
C634        C635   1.408       .  A
C635        H639   1.083   1_655  S
