geometry optimzed in LAMMPS
_audit_creation_date              2020-12-01 
_audit_creation_method            'lammps2cif' 
_symmetry_space_group_name_H-M    'P1' 
_symmetry_Int_Tables_number       1 
_symmetry_cell_setting            triclinic 
loop_ 
_symmetry_equiv_pos_as_xyz 
  x,y,z 
_cell_length_a                    61.72733813 
_cell_length_b                    61.703628262513575 
_cell_length_c                    61.75735138490075 
_cell_angle_alpha                 90.03728788475988 
_cell_angle_beta                  89.90248491315558 
_cell_angle_gamma                 89.94022234166542 
loop_ 
_atom_site_label 
_atom_site_type_symbol 
_atom_site_fract_x 
_atom_site_fract_y 
_atom_site_fract_z 
_atom_site_charge 
C1          C  0.19556593  0.80579953  0.52071313     0.03100
C2          C  0.17964708  0.82211458  0.52105356    -0.13000
C3          C  0.17145205  0.83073094  0.50170782     0.00600
C4          C  0.17878083  0.82237467  0.48189196    -0.11500
C5          C  0.19475535  0.80621464  0.48119202     0.03100
C6          C  0.20294723  0.79776396  0.50068339    -0.11000
H7          H  0.17377729  0.82826368  0.53642640     0.08700
H8          H  0.17226413  0.82873184  0.46689370     0.06200
H9          H  0.21520402  0.78518615  0.50025703     0.06100
C10         C  0.83616777  0.16386679  0.52201905     0.03100
C11         C  0.82939932  0.17202869  0.50185298    -0.13000
C12         C  0.83824985  0.16370814  0.48252535     0.00600
C13         C  0.85432460  0.14768416  0.48357992    -0.11500
C14         C  0.86116833  0.13942164  0.50353152     0.03100
C15         C  0.85224187  0.14773708  0.52270131    -0.11000
H16         H  0.81706486  0.18451512  0.50119338     0.08700
H17         H  0.86127029  0.14129373  0.46875318     0.06200
H18         H  0.85760611  0.14144842  0.53817845     0.06100
C19         C  0.83319884  0.80597654  0.52018942     0.03100
C20         C  0.82720062  0.79796982  0.49975650    -0.13000
C21         C  0.83673299  0.80635292  0.48080268     0.00600
C22         C  0.85227263  0.82288321  0.48260429    -0.11500
C23         C  0.85848772  0.83087679  0.50295018     0.03100
C24         C  0.84912625  0.82210604  0.52165156    -0.11000
H25         H  0.81496091  0.78544577  0.49861559     0.08700
H26         H  0.85940446  0.82973419  0.46810748     0.06200
H27         H  0.85390351  0.82817561  0.53741247     0.06100
C28         C  0.53565470  0.80348690  0.17830641     0.03100
C29         C  0.51606744  0.79597719  0.18726958    -0.13000
C30         C  0.49610174  0.80340615  0.17916699     0.00600
C31         C  0.49590270  0.81811226  0.16181282    -0.11500
C32         C  0.51532063  0.82580526  0.15287773     0.03100
C33         C  0.53507460  0.81868679  0.16144422    -0.11000
H34         H  0.51635964  0.78452716  0.20055963     0.08700
H35         H  0.48057355  0.82351622  0.15518186     0.06200
H36         H  0.55011382  0.82483662  0.15477614     0.06100
C37         C  0.83933764  0.46296137  0.17758912     0.03100
C38         C  0.85531703  0.46225970  0.16142741    -0.13000
C39         C  0.86352761  0.48141137  0.15257730     0.00600
C40         C  0.85611599  0.50142937  0.16027947    -0.11500
C41         C  0.84045603  0.50249834  0.17673483     0.03100
C42         C  0.83224163  0.48312904  0.18553764    -0.11000
H43         H  0.86118151  0.44676918  0.15553156     0.08700
H44         H  0.86256907  0.51624216  0.15339479     0.06200
H45         H  0.82029189  0.48373176  0.19839279     0.06100
C46         C  0.83664465  0.46712836  0.82808516     0.03100
C47         C  0.85292749  0.46818427  0.84393567    -0.13000
C48         C  0.86160643  0.48815218  0.85027200     0.00600
C49         C  0.85358283  0.50730181  0.84120310    -0.11500
C50         C  0.83693519  0.50666002  0.82577890     0.03100
C51         C  0.82887967  0.48650180  0.81883705    -0.11000
H52         H  0.85909274  0.45341172  0.85116271     0.08700
H53         H  0.86024467  0.52275118  0.84624221     0.06200
H54         H  0.81645699  0.48592665  0.80648150     0.06100
C55         C  0.53620614  0.16646618  0.82461093     0.03100
C56         C  0.51628018  0.17135564  0.81491325    -0.13000
C57         C  0.49747693  0.16022531  0.82132500     0.00600
C58         C  0.49903524  0.14390087  0.83709883    -0.11500
C59         C  0.51847551  0.14025512  0.84839019     0.03100
C60         C  0.53692981  0.15207479  0.84210243    -0.11000
H61         H  0.51554207  0.18331464  0.80210205     0.08700
H62         H  0.48491583  0.13409534  0.84044870     0.06200
H63         H  0.55229288  0.14961083  0.85017010     0.06100
C64         C  0.19994439  0.46023268  0.82284984     0.03100
C65         C  0.18438162  0.46057148  0.83944098    -0.13000
C66         C  0.17573315  0.48019068  0.84686952     0.00600
C67         C  0.18339322  0.49970275  0.83821203    -0.11500
C68         C  0.19871946  0.49971424  0.82137812     0.03100
C69         C  0.20699627  0.47988919  0.81374170    -0.11000
H70         H  0.17883993  0.44547529  0.84649986     0.08700
H71         H  0.17704319  0.51493256  0.84426908     0.06200
H72         H  0.21859000  0.47974783  0.80054957     0.06100
C73         C  0.49346051  0.80572678  0.81965278     0.03100
C74         C  0.49379070  0.82175292  0.83579354    -0.13000
C75         C  0.51347030  0.82879826  0.84453965     0.00600
C76         C  0.53293572  0.81976140  0.83720813    -0.11500
C77         C  0.53298375  0.80419212  0.82061635     0.03100
C78         C  0.51311698  0.79680043  0.81224430    -0.11000
H79         H  0.47873244  0.82881845  0.84148165     0.08700
H80         H  0.54813070  0.82534494  0.84398465     0.06200
H81         H  0.51297295  0.78472625  0.79949708     0.06100
C82         C  0.04317851  0.30683123  0.31520590     0.03100
C83         C  0.04284340  0.32317236  0.33104361    -0.13000
C84         C  0.02338436  0.32965297  0.34075720     0.00600
C85         C  0.00396774  0.31973120  0.33448756    -0.11500
C86         C  0.00391986  0.30357833  0.31849217     0.03100
C87         C  0.02355272  0.29710147  0.30889873    -0.11000
H88         H  0.05785394  0.33083651  0.33595076     0.08700
H89         H  0.98888025  0.32446254  0.34216372     0.06200
H90         H  0.02358227  0.28415493  0.29704317     0.06100
O91         O  0.29559825  0.19889340  0.23377319    -0.88300
C92         C  0.29082707  0.22559524  0.29408059     0.87700
Mg93       Mg  0.30543815  0.21695109  0.20583045     1.58100
O94         O  0.24088147  0.21640049  0.26855871    -0.88100
O95         O  0.26771688  0.17972106  0.24461188    -0.75400
C96         C  0.24893707  0.30860800  0.21100603     0.92700
O97         O  0.32429748  0.23679062  0.25456426    -0.75200
O98         O  0.26688762  0.30122924  0.20401843    -0.82700
Mg99       Mg  0.31577696  0.20135180  0.26196909     1.58000
C100        C  0.19364792  0.26408812  0.26845152     0.92700
O101        O  0.31071159  0.16542607  0.27087207    -0.81000
H102        H  0.21988274  0.19633107  0.25427639    -0.06300
C103        C  0.26490973  0.27763405  0.26380438     0.87600
O104        O  0.26992522  0.22225813  0.19616654    -0.75500
O105        O  0.28792034  0.21127048  0.28037275    -0.88300
O106        O  0.20472294  0.25255852  0.28155999    -0.81100
C107        C  0.23918112  0.20924056  0.32652213     0.92800
C108        C  0.29852443  0.15384754  0.28287981     0.92600
Mg109      Mg  0.23126450  0.26113588  0.23206963     1.58000
O110        O  0.23636538  0.29718819  0.22280386    -0.81000
O111        O  0.22255090  0.22563546  0.23959931    -0.75200
O112        O  0.25144348  0.19663851  0.31556882    -0.81100
O113        O  0.34595608  0.19183801  0.24297674    -0.82800
O114        O  0.29503063  0.26538804  0.17908917    -0.81100
C115        C  0.22735755  0.21216870  0.25441434     0.87100
O116        O  0.25891323  0.25099580  0.21394074    -0.88200
O117        O  0.25123759  0.26337633  0.26047133    -0.88400
O118        O  0.27934083  0.28234429  0.24987512    -0.75400
Mg119      Mg  0.26043745  0.18993442  0.27970042     1.58000
O120        O  0.23097139  0.22630350  0.31831299    -0.82800
H121        H  0.28198592  0.17614124  0.21519810    -0.06500
O122        O  0.30574524  0.24562828  0.22563486    -0.88100
H123        H  0.32677373  0.26591823  0.23954767    -0.06300
H124        H  0.24007090  0.23556369  0.19263437    -0.06500
C125        C  0.31938092  0.25004199  0.23961436     0.87000
C126        C  0.28204768  0.18448212  0.23059768     0.87600
C127        C  0.25569542  0.23652407  0.20045888     0.87700
H128        H  0.26498394  0.28587422  0.27925841    -0.06500
O129        O  0.27635721  0.23962665  0.29840918    -0.75500
Mg130      Mg  0.28650887  0.27215664  0.21473920     1.58000
H131        H  0.30631100  0.22656710  0.30217684    -0.06500
C132        C  0.35328378  0.19885111  0.22500770     0.92700
O133        O  0.31467916  0.23549153  0.17528207    -0.82700
C134        C  0.30668533  0.25287217  0.16751252     0.92700
O135        O  0.28069120  0.16108870  0.29039902    -0.82700
Mg136      Mg  0.24091001  0.24512165  0.28822008     1.58200
O137        O  0.34163029  0.20990120  0.21201656    -0.81100
O138        O  0.20142991  0.27095965  0.25067115    -0.82800
C139        C  0.34289186  0.00096199  0.31889245     0.03100
C140        C  0.35978845  0.00009233  0.33400243    -0.13000
C141        C  0.36769579  0.98016519  0.34140265     0.00600
C142        C  0.35890342  0.96091414  0.33321625    -0.11500
C143        C  0.34184739  0.96146272  0.31816641     0.03100
C144        C  0.33414896  0.98159492  0.31074453    -0.11000
H145        H  0.36647120  0.01501126  0.34042314     0.08700
H146        H  0.36489388  0.94548242  0.33907451     0.06200
H147        H  0.32085676  0.98220224  0.29931930     0.06100
O148        O  0.28744018  0.74515535  0.21926817    -0.88300
C149        C  0.28586418  0.68503460  0.24567814     0.87700
Mg150      Mg  0.29743995  0.77287849  0.23732329     1.58100
O151        O  0.23466503  0.70858124  0.23879515    -0.88100
O152        O  0.25879506  0.73407677  0.20145028    -0.75400
C153        C  0.24330332  0.76608703  0.33026899     0.92700
O154        O  0.31804230  0.72492613  0.25582735    -0.75200
O155        O  0.26024779  0.77468185  0.32225767    -0.82700
Mg156      Mg  0.30851289  0.71755571  0.22052658     1.58000
C157        C  0.18884824  0.70661688  0.28768683     0.92700
O158        O  0.30227489  0.70892617  0.18474528    -0.81000
H159        H  0.21205754  0.72151572  0.21958338    -0.06300
C160        C  0.26019194  0.71418591  0.29933051     0.87600
O161        O  0.26179328  0.78197557  0.24380263    -0.75500
O162        O  0.28176932  0.69853348  0.23144636    -0.88300
O163        O  0.20029392  0.69389893  0.27597549    -0.81100
C164        C  0.23612733  0.65062369  0.23108288     0.92800
C165        C  0.28975833  0.69695208  0.17351553     0.92600
Mg166      Mg  0.22499101  0.74440313  0.28362707     1.58000
O167        O  0.23115475  0.75355492  0.31925738    -0.81000
O168        O  0.21513333  0.73659481  0.24862491    -0.75200
O169        O  0.24685342  0.66260865  0.21813318    -0.81100
O170        O  0.33769622  0.73710185  0.20983206    -0.82800
O171        O  0.28686411  0.80012909  0.28546813    -0.81100
C172        C  0.22017638  0.72192103  0.23507562     0.87100
O173        O  0.25172912  0.76356601  0.27245167    -0.88200
O174        O  0.24617601  0.71684257  0.28527518    -0.88400
O175        O  0.27409940  0.72874140  0.30368448    -0.75400
Mg176      Mg  0.25341334  0.69861954  0.21137809     1.58000
O177        O  0.22783024  0.65801505  0.24851380    -0.82800
H178        H  0.27215722  0.76387469  0.19773224    -0.06500
O179        O  0.29881522  0.75312402  0.26588553    -0.88100
H180        H  0.32078404  0.73932666  0.28526177    -0.06300
H181        H  0.23207471  0.78466655  0.25769282    -0.06500
C182        C  0.31294485  0.73938473  0.26962043     0.87000
C183        C  0.27305488  0.74830028  0.20569123     0.87600
C184        C  0.24788188  0.77712591  0.25821446     0.87700
H185        H  0.26098342  0.69885488  0.30775875    -0.06500
O186        O  0.27225132  0.68022882  0.26037660    -0.75500
Mg187      Mg  0.27979751  0.76403797  0.29289216     1.58000
H188        H  0.30173382  0.67761382  0.24602271    -0.06500
C189        C  0.34507683  0.75479651  0.21737194     0.92700
O190        O  0.30699709  0.80305945  0.25564739    -0.82700
C191        C  0.29851033  0.81128505  0.27253267     0.92700
O192        O  0.27240451  0.68901820  0.18132823    -0.82700
Mg193      Mg  0.23660122  0.68868913  0.26725927     1.58200
O194        O  0.33364163  0.76722767  0.22932209    -0.81100
O195        O  0.19609789  0.72462847  0.29460064    -0.82800
O196        O  0.80551645  0.25377499  0.23563468    -0.88300
C197        C  0.77899678  0.25130229  0.29592680     0.87700
Mg198      Mg  0.78704462  0.26380604  0.20804155     1.58100
O199        O  0.78703303  0.20039838  0.27205707    -0.88100
O200        O  0.82390474  0.22547393  0.24686070    -0.75400
C201        C  0.69492324  0.20864271  0.21572406     0.92700
O202        O  0.76865422  0.28418668  0.25632452    -0.75200
O203        O  0.70215359  0.22651310  0.20839809    -0.82700
Mg204      Mg  0.80395087  0.27468059  0.26347710     1.58000
C205        C  0.73971861  0.15340647  0.27326293     0.92700
O206        O  0.83985820  0.26900985  0.27221095    -0.81000
H207        H  0.80679463  0.17865521  0.25834927    -0.06300
C208        C  0.72634703  0.22535326  0.26739581     0.87600
O209        O  0.78073483  0.22831926  0.19858604    -0.75500
O210        O  0.79330247  0.24761555  0.28235285    -0.88300
O211        O  0.75040004  0.16523366  0.28643659    -0.81100
C212        C  0.79425405  0.20092410  0.32986526     0.92800
C213        C  0.85114410  0.25688285  0.28452885     0.92600
Mg214      Mg  0.74232029  0.19058937  0.23615308     1.58000
O215        O  0.70651221  0.19602463  0.22725336    -0.81000
O216        O  0.77764387  0.18153528  0.24349317    -0.75200
O217        O  0.80700914  0.21259110  0.31850870    -0.81100
O218        O  0.81413234  0.30410028  0.24410218    -0.82800
O219        O  0.73800363  0.25389290  0.18186499    -0.81100
C220        C  0.79108368  0.18641401  0.25826974     0.87100
O221        O  0.75245001  0.21797700  0.21741571    -0.88200
O222        O  0.74023444  0.21123433  0.26415873    -0.88400
O223        O  0.72193102  0.23973046  0.25334763    -0.75400
Mg224      Mg  0.81396765  0.21966833  0.28235737     1.58000
O225        O  0.77724889  0.19236665  0.32199310    -0.82800
H226        H  0.82732167  0.23869065  0.21695846    -0.06500
O227        O  0.75875914  0.26494665  0.22821265    -0.88100
H228        H  0.73931256  0.28704509  0.24181841    -0.06300
H229        H  0.76679718  0.19868506  0.19566294    -0.06500
C230        C  0.75495728  0.27915177  0.24183769     0.87000
C231        C  0.81933757  0.23955080  0.23253151     0.87600
C232        C  0.76639876  0.21437175  0.20346307     0.87700
H233        H  0.71826482  0.22593245  0.28293050    -0.06500
O234        O  0.76470348  0.23727909  0.30076474    -0.75500
Mg235      Mg  0.73170539  0.24599638  0.21800570     1.58000
H236        H  0.77827689  0.26710760  0.30346097    -0.06500
C237        C  0.80633146  0.31147636  0.22653733     0.92700
O238        O  0.76802839  0.27349082  0.17821967    -0.82700
C239        C  0.75073208  0.26550822  0.17039999     0.92700
O240        O  0.84354148  0.23934348  0.29229923    -0.82700
Mg241      Mg  0.75845249  0.20154879  0.29191374     1.58200
O242        O  0.79472187  0.29988075  0.21400543    -0.81100
O243        O  0.73267899  0.16076652  0.25534777    -0.82800
C244        C  0.69168157  0.00321582  0.31621781     0.03100
C245        C  0.70047898  0.98331661  0.30935479    -0.13000
C246        C  0.69259365  0.96370814  0.31786626     0.00600
C247        C  0.67540269  0.96412851  0.33277951    -0.11500
C248        C  0.66622562  0.98382538  0.33945386     0.03100
C249        C  0.67446491  0.00329121  0.33111790    -0.11000
H250        H  0.71369605  0.98311866  0.29778664     0.08700
H251        H  0.66933160  0.94905885  0.33943255     0.06200
H252        H  0.66770492  0.01858669  0.33654110     0.06100
O253        O  0.73329986  0.75373727  0.26482510    -0.88300
C254        C  0.75942577  0.75108226  0.20416479     0.87700
Mg255      Mg  0.75183832  0.76369871  0.29245575     1.58100
O256        O  0.75107735  0.70025414  0.22815370    -0.88100
O257        O  0.71458061  0.72574249  0.25353408    -0.75400
C258        C  0.84368746  0.70774619  0.28413018     0.92700
O259        O  0.77001916  0.78407850  0.24399697    -0.75200
O260        O  0.83640040  0.72555661  0.29160306    -0.82700
Mg261      Mg  0.73465974  0.77464100  0.23702310     1.58000
C262        C  0.79798340  0.65278927  0.22649243     0.92700
O263        O  0.69865772  0.76900602  0.22858077    -0.81000
H264        H  0.73124501  0.67874084  0.24202362    -0.06300
C265        C  0.81189692  0.72460386  0.23246832     0.87600
O266        O  0.75815806  0.72817630  0.30177190    -0.75500
O267        O  0.74515281  0.74753750  0.21780446    -0.88300
O268        O  0.78702026  0.66469664  0.21360220    -0.81100
C269        C  0.74281689  0.69999829  0.17041623     0.92800
C270        C  0.68749860  0.75692908  0.21609665     0.92600
Mg271      Mg  0.79604403  0.69006265  0.26373657     1.58000
O272        O  0.83213386  0.69527479  0.27236670    -0.81000
O273        O  0.76054520  0.68133215  0.25664966    -0.75200
O274        O  0.73046681  0.71193125  0.18195300    -0.81100
O275        O  0.72443204  0.80391759  0.25677244    -0.82800
O276        O  0.80133126  0.75395439  0.31811408    -0.81100
C277        C  0.74702258  0.68633331  0.24197815     0.87100
O278        O  0.78618879  0.71756859  0.28270400    -0.88200
O279        O  0.79791961  0.71062249  0.23572625    -0.88400
O280        O  0.81650166  0.73889696  0.24655367    -0.75400
Mg281      Mg  0.72428979  0.71968066  0.21802037     1.58000
O282        O  0.76038030  0.69213470  0.17784750    -0.82800
H283        H  0.71137086  0.73891182  0.28349776    -0.06500
O284        O  0.78003591  0.76478894  0.27202841    -0.88100
H285        H  0.79942973  0.78685231  0.25838365    -0.06300
H286        H  0.77190075  0.69841730  0.30456746    -0.06500
C287        C  0.78378126  0.77899842  0.25841619     0.87000
C288        C  0.71934105  0.73969671  0.26791715     0.87600
C289        C  0.77233923  0.71409084  0.29676528     0.87700
H290        H  0.81992435  0.72511988  0.21690478    -0.06500
O291        O  0.77354780  0.73689177  0.19920155    -0.75500
Mg292      Mg  0.80706272  0.74546912  0.28198315     1.58000
H293        H  0.76027062  0.76689537  0.19668270    -0.06500
C294        C  0.73174459  0.81122587  0.27458529     0.92700
O295        O  0.77115110  0.77341124  0.32218850    -0.82700
C296        C  0.78876213  0.76570417  0.32964649     0.92700
O297        O  0.69508876  0.73953234  0.20803349    -0.82700
Mg298      Mg  0.77945247  0.70110089  0.20801557     1.58200
O299        O  0.74366532  0.79980463  0.28699449    -0.81100
O300        O  0.80538646  0.66017723  0.24425679    -0.82800
C301        C  0.03540354  0.66250007  0.32371240     0.03100
C302        C  0.03469758  0.64682910  0.34014361    -0.13000
C303        C  0.01493702  0.63885069  0.34785124     0.00600
C304        C  0.99557490  0.64630374  0.33869129    -0.11500
C305        C  0.99580648  0.66156653  0.32180540     0.03100
C306        C  0.01583260  0.66982413  0.31449082    -0.11000
H307        H  0.04967040  0.64084324  0.34708857     0.08700
H308        H  0.98025967  0.64024423  0.34478669     0.06200
H309        H  0.01619209  0.68161044  0.30150328     0.06100
C310        C  0.34277990  0.29796383  0.01487261     0.03100
C311        C  0.35778960  0.31499741  0.01569621    -0.13000
C312        C  0.36495808  0.32508814  0.99666695     0.00600
C313        C  0.35643844  0.31845739  0.97669411    -0.11500
C314        C  0.34114443  0.30163751  0.97556404     0.03100
C315        C  0.33436042  0.29141291  0.99478621    -0.11000
H316        H  0.36402164  0.32030608  0.03121691     0.08700
H317        H  0.36195332  0.32621746  0.96194000     0.06200
H318        H  0.32301295  0.27804770  0.99408186     0.06100
O319        O  0.30020583  0.24461566  0.76743812    -0.88300
C320        C  0.27446339  0.18424572  0.76386368     0.87700
Mg321      Mg  0.28152941  0.27210160  0.77721902     1.58100
O322        O  0.28249422  0.20980708  0.71380935    -0.88100
O323        O  0.31958880  0.23423413  0.73956815    -0.75400
C324        C  0.18936572  0.26561834  0.72193521     0.92700
O325        O  0.26306258  0.22342550  0.79695118    -0.75200
O326        O  0.19677445  0.27268874  0.73981916    -0.82700
Mg327      Mg  0.29858184  0.21657874  0.78806744     1.58000
C328        C  0.23536581  0.20855802  0.66656026     0.92700
O329        O  0.33474983  0.20804083  0.78261186    -0.81000
H330        H  0.30212679  0.22434139  0.69253492    -0.06300
C331        C  0.22123233  0.21331825  0.73809188     0.87600
O332        O  0.27544459  0.28167029  0.74182025    -0.75500
O333        O  0.28870845  0.19796078  0.76059779    -0.88300
O334        O  0.24661401  0.19574076  0.67822657    -0.81100
C335        C  0.29068063  0.15209823  0.71219222     0.92800
C336        C  0.34627954  0.19616678  0.77015357     0.92600
Mg337      Mg  0.23686103  0.24508591  0.70399403     1.58000
O338        O  0.20075471  0.25370517  0.70941611    -0.81000
O339        O  0.27244997  0.23830111  0.69512468    -0.75200
O340        O  0.30310806  0.16328208  0.72429930    -0.81100
O341        O  0.30781781  0.23585660  0.81802945    -0.82800
O342        O  0.23201469  0.29833059  0.76784508    -0.81100
C343        C  0.28631840  0.22389657  0.70008379     0.87100
O344        O  0.24674955  0.26361550  0.73139150    -0.88200
O345        O  0.23538483  0.21691816  0.72436786    -0.88400
O346        O  0.21633546  0.22715910  0.75253210    -0.75400
Mg347      Mg  0.30954865  0.19905738  0.73274565     1.58000
O348        O  0.27321073  0.15983145  0.70448577    -0.82800
H349        H  0.32272191  0.26362417  0.75398948    -0.06500
O350        O  0.25318120  0.25187892  0.77813882    -0.88100
H351        H  0.23353765  0.23767330  0.79961793    -0.06300
H352        H  0.26150925  0.28520149  0.71230165    -0.06500
C353        C  0.24931572  0.23793614  0.79199697     0.87000
C354        C  0.31461262  0.24810256  0.75395296     0.87600
C355        C  0.26095425  0.27729842  0.72791197     0.87700
H356        H  0.21329483  0.19770801  0.73822232    -0.06500
O357        O  0.26016754  0.17982925  0.74973963    -0.75500
Mg358      Mg  0.22605722  0.26244558  0.75932307     1.58000
H359        H  0.27374729  0.17627495  0.77943248    -0.06500
C360        C  0.30054696  0.25388985  0.82498456     0.92700
O361        O  0.26241908  0.30170836  0.78696991    -0.82700
C362        C  0.24470653  0.30936843  0.77980658     0.92700
O363        O  0.33895215  0.18872103  0.75237536    -0.82700
Mg364      Mg  0.25414158  0.18956155  0.71430120     1.58200
O365        O  0.28931653  0.26647371  0.81310917    -0.81100
O366        O  0.22744217  0.22603097  0.67413991    -0.82800
C367        C  0.33720751  0.99988306  0.67705819     0.03100
C368        C  0.35408411  0.99886928  0.66187781    -0.13000
C369        C  0.36268533  0.97887588  0.65546227     0.00600
C370        C  0.35416943  0.95970177  0.66414353    -0.11500
C371        C  0.33720190  0.96043909  0.67936254     0.03100
C372        C  0.32866124  0.98061927  0.68563844    -0.11000
H373        H  0.36067316  0.01370189  0.65516043     0.08700
H374        H  0.36057844  0.94421346  0.65886005     0.06200
H375        H  0.31547075  0.98134832  0.69722059     0.06100
O376        O  0.23041727  0.74615348  0.72949268    -0.88300
C377        C  0.25573634  0.68547844  0.73294595     0.87700
Mg378      Mg  0.24926584  0.77340464  0.71938072     1.58100
O379        O  0.24785746  0.71044995  0.78332530    -0.88100
O380        O  0.21139640  0.73568504  0.75764790    -0.75400
C381        C  0.34185546  0.76484969  0.77438541     0.92700
O382        O  0.26714752  0.72456186  0.69977150    -0.75200
O383        O  0.33417512  0.77271114  0.75695553    -0.82700
Mg384      Mg  0.23159664  0.71813646  0.70892580     1.58000
C385        C  0.29498326  0.70881725  0.83066649     0.92700
O386        O  0.19553759  0.71056820  0.71468445    -0.81000
H387        H  0.22849662  0.72507911  0.80483429    -0.06300
C388        C  0.30901172  0.71374148  0.75863217     0.87600
O389        O  0.25553499  0.78279863  0.75491795    -0.75500
O390        O  0.24153507  0.69925845  0.73630632    -0.88300
O391        O  0.28364496  0.69606109  0.81899028    -0.81100
C392        C  0.23944486  0.65268132  0.78424206     0.92800
C393        C  0.18358521  0.69909794  0.72700897     0.92600
Mg394      Mg  0.29386503  0.74544968  0.79306288     1.58000
O395        O  0.33021316  0.75358225  0.78728246    -0.81000
O396        O  0.25823383  0.73883001  0.80206150    -0.75200
O397        O  0.22683762  0.66380143  0.77216841    -0.81100
O398        O  0.22199718  0.73740498  0.67909847    -0.82800
O399        O  0.29825991  0.79936043  0.72981648    -0.81100
C400        C  0.24423534  0.72453909  0.79714457     0.87100
O401        O  0.28385923  0.76418268  0.76564324    -0.88200
O402        O  0.29507998  0.71734336  0.77261977    -0.88400
O403        O  0.31381689  0.72764015  0.74421090    -0.75400
Mg404      Mg  0.22066909  0.70013003  0.76416268     1.58000
O405        O  0.25671437  0.66056938  0.79220992    -0.82800
H406        H  0.20858739  0.76538731  0.74382239    -0.06500
O407        O  0.27732279  0.75289445  0.71864208    -0.88100
H408        H  0.29678202  0.73852581  0.69704659    -0.06300
H409        H  0.26910021  0.78589553  0.78467431    -0.06500
C410        C  0.28103787  0.73892429  0.70473355     0.87000
C411        C  0.21638790  0.74969667  0.74339732     0.87600
C412        C  0.26974351  0.77804001  0.76903287     0.87700
H413        H  0.31684038  0.69806358  0.75825183    -0.06500
O414        O  0.26993179  0.68077466  0.74709553    -0.75500
Mg415      Mg  0.30445054  0.76313481  0.73762711     1.58000
H416        H  0.25648221  0.67766508  0.71728819    -0.06500
C417        C  0.22991252  0.75491504  0.67164350     0.92700
O418        O  0.26855464  0.80309234  0.70965351    -0.82700
C419        C  0.28566800  0.81083133  0.71809494     0.92700
O420        O  0.19082197  0.69059487  0.74437029    -0.82700
Mg421      Mg  0.27608200  0.69011826  0.78266419     1.58200
O422        O  0.24160800  0.76740680  0.68321860    -0.81100
O423        O  0.30315080  0.72612719  0.82296884    -0.82800
C424        C  0.03343355  0.66195854  0.67464550     0.03100
C425        C  0.03326629  0.64484981  0.65963666    -0.13000
C426        C  0.01367714  0.63592544  0.65256188     0.00600
C427        C  0.99410668  0.64365703  0.66100693    -0.11500
C428        C  0.99386374  0.66068745  0.67609108     0.03100
C429        C  0.01362362  0.66984897  0.68283108    -0.11000
H430        H  0.04840364  0.63843641  0.65342118     0.08700
H431        H  0.97898727  0.63661976  0.65552970     0.06200
H432        H  0.01358377  0.68323899  0.69418685     0.06100
C433        C  0.03668190  0.30576113  0.68020245     0.03100
C434        C  0.01704440  0.29960786  0.69006491    -0.13000
C435        C  0.99724395  0.30795181  0.68235799     0.00600
C436        C  0.99728192  0.32202908  0.66451312    -0.11500
C437        C  0.01675092  0.32808379  0.65462683     0.03100
C438        C  0.03633584  0.32000736  0.66255049    -0.11000
H439        H  0.01720569  0.28880247  0.70388500     0.08700
H440        H  0.98211045  0.32828652  0.65827227     0.06200
H441        H  0.05142321  0.32501284  0.65505779     0.06100
O442        O  0.78165383  0.25784874  0.78444850    -0.88300
C443        C  0.72027127  0.25446828  0.76042951     0.87700
Mg444      Mg  0.80850411  0.26820607  0.76494864     1.58100
O445        O  0.74507151  0.20384057  0.76749259    -0.88100
O446        O  0.77137880  0.22938508  0.80315873    -0.75400
C447        C  0.79820246  0.21215823  0.67310378     0.92700
O448        O  0.75926633  0.28785644  0.74845014    -0.75200
O449        O  0.80600491  0.22990496  0.68018573    -0.82700
Mg450      Mg  0.75350517  0.27827854  0.78400679     1.58000
C451        C  0.74286991  0.15662573  0.72095497     0.92700
O452        O  0.74635529  0.27237607  0.82023605    -0.81000
H453        H  0.76010115  0.18256004  0.78670725    -0.06300
C454        C  0.74728093  0.22877927  0.70671087     0.87600
O455        O  0.81790181  0.23273306  0.75819433    -0.75500
O456        O  0.73450796  0.25091774  0.77406157    -0.88300
O457        O  0.72997880  0.16846851  0.73203846    -0.81100
C458        C  0.68716771  0.20417755  0.77688947     0.92800
C459        C  0.73441438  0.25999540  0.83166821     0.92600
Mg460      Mg  0.77939499  0.19444348  0.72128072     1.58000
O461        O  0.78655607  0.19979820  0.68488871    -0.81000
O462        O  0.77368831  0.18555258  0.75692824    -0.75200
O463        O  0.69926799  0.21533798  0.78938281    -0.81100
O464        O  0.77287105  0.30797435  0.79356605    -0.82800
O465        O  0.83292410  0.25829048  0.71481927    -0.81100
C466        C  0.75934540  0.19019381  0.77097411     0.87100
O467        O  0.79828224  0.22206106  0.73062368    -0.88200
O468        O  0.75112705  0.21475293  0.72050412    -0.88400
O469        O  0.76111318  0.24315085  0.70157667    -0.75400
Mg470      Mg  0.73559527  0.22296706  0.79468315     1.58000
O471        O  0.69439942  0.19565887  0.75953413    -0.82800
H472        H  0.80121887  0.24297375  0.80552165    -0.06500
O473        O  0.78733397  0.26909996  0.73732426    -0.88100
H474        H  0.77259887  0.29098222  0.71854760    -0.06300
H475        H  0.82065148  0.20304427  0.74428120    -0.06500
C476        C  0.77331170  0.28306928  0.73414395     0.87000
C477        C  0.78537954  0.24364601  0.79810552     0.87600
C478        C  0.81269827  0.21866173  0.74409255     0.87700
H479        H  0.73143351  0.22924059  0.69929590    -0.06500
O480        O  0.71501395  0.24042198  0.74630882    -0.75500
Mg481      Mg  0.79678349  0.24988946  0.70988130     1.58000
H482        H  0.71251342  0.27018163  0.76013011    -0.06500
C483        C  0.79009101  0.31585444  0.78541613     0.92700
O484        O  0.83772965  0.27778269  0.74473788    -0.82700
C485        C  0.84482592  0.26999344  0.72696781     0.92700
O486        O  0.72644751  0.24252674  0.82422278    -0.82700
Mg487      Mg  0.72409515  0.20478754  0.73978978     1.58200
O488        O  0.80264318  0.30457425  0.77337425    -0.81100
O489        O  0.76020515  0.16422830  0.71274511    -0.82800
C490        C  0.69477539  0.00572301  0.68040032     0.03100
C491        C  0.70142226  0.98560501  0.68893339    -0.13000
C492        C  0.69219855  0.96617969  0.68126508     0.00600
C493        C  0.67635937  0.96711406  0.66501668    -0.11500
C494        C  0.66999931  0.98695179  0.65608623     0.03100
C495        C  0.67920189  0.00619492  0.66382316    -0.11000
H496        H  0.71389408  0.98507121  0.70124209     0.08700
H497        H  0.66917601  0.95225802  0.65900164     0.06200
H498        H  0.67409673  0.02157400  0.65704861     0.06100
O499        O  0.77874362  0.76707558  0.72857464    -0.88300
C500        C  0.71799884  0.74186783  0.73228799     0.87700
Mg501      Mg  0.80611921  0.74812579  0.71872161     1.58100
O502        O  0.74277290  0.74975614  0.78271084    -0.88100
O503        O  0.76818224  0.78592146  0.75686331    -0.75400
C504        C  0.79888208  0.65679194  0.77492600     0.92700
O505        O  0.75710370  0.72974552  0.69992439    -0.75200
O506        O  0.80668381  0.66416933  0.75735332    -0.82700
Mg507      Mg  0.75062764  0.76549357  0.70820167     1.58000
C508        C  0.74131370  0.70268589  0.82971621     0.92700
O509        O  0.74258422  0.80194542  0.71334264    -0.81000
H510        H  0.75669550  0.76929425  0.80444629    -0.06300
C511        C  0.74691256  0.68843735  0.75841262     0.87600
O512        O  0.81556838  0.74265876  0.75435366    -0.75500
O513        O  0.73181690  0.75596488  0.73570349    -0.88300
O514        O  0.72853501  0.71394918  0.81801601    -0.81100
C515        C  0.68496028  0.75817313  0.78323867     0.92800
C516        C  0.73071428  0.81346091  0.72583572     0.92600
Mg517      Mg  0.77817083  0.70434055  0.79261644     1.58000
O518        O  0.78671738  0.66821537  0.78717408    -0.81000
O519        O  0.77111006  0.73984328  0.80165819    -0.75200
O520        O  0.69635182  0.77077465  0.77141398    -0.81100
O521        O  0.76979865  0.77389181  0.67787329    -0.82800
O522        O  0.83244514  0.69958484  0.72978617    -0.81100
C523        C  0.75658127  0.75357951  0.79669535     0.87100
O524        O  0.79701432  0.71439235  0.76529852    -0.88200
O525        O  0.75020648  0.70276579  0.77203085    -0.88400
O526        O  0.76104219  0.68340490  0.74427214    -0.75400
Mg527      Mg  0.73265317  0.77674924  0.76345565     1.58000
O528        O  0.69263687  0.74073481  0.79115104    -0.82800
H529        H  0.79787244  0.78883727  0.74301469    -0.06500
O530        O  0.78576169  0.71997800  0.71850834    -0.88100
H531        H  0.77105146  0.70003790  0.69767734    -0.06300
H532        H  0.81847281  0.72943351  0.78430032    -0.06500
C533        C  0.77156898  0.71596762  0.70495592     0.87000
C534        C  0.78220318  0.78103952  0.74254880     0.87600
C535        C  0.81076703  0.72859103  0.76861522     0.87700
H536        H  0.73136470  0.68039150  0.75815260    -0.06500
O537        O  0.71332015  0.72755819  0.74633003    -0.75500
Mg538      Mg  0.79640538  0.69326565  0.73767257     1.58000
H539        H  0.71019108  0.74127303  0.71664224    -0.06500
C540        C  0.78699937  0.76520478  0.67042791     0.92700
O541        O  0.83596696  0.72886673  0.70924744    -0.82700
C542        C  0.84393299  0.71192520  0.71782357     0.92700
O543        O  0.72315206  0.80611899  0.74356673    -0.82700
Mg544      Mg  0.72260797  0.72147942  0.78184420     1.58200
O545        O  0.79986878  0.75450984  0.68251570    -0.81100
O546        O  0.75883697  0.69473162  0.82226961    -0.82800
C547        C  0.33571802  0.66041957  0.02105739     0.03100
C548        C  0.35115940  0.64374935  0.02047808    -0.13000
C549        C  0.35948621  0.63619467  0.00076784     0.00600
C550        C  0.35240035  0.64559570  0.98138130    -0.11500
C551        C  0.33658962  0.66193471  0.98157899     0.03100
C552        C  0.32837219  0.66947880  0.00147237    -0.11000
H553        H  0.35663893  0.63649183  0.03549179     0.08700
H554        H  0.35904002  0.64006526  0.96608325     0.06200
H555        H  0.31646963  0.68239168  0.00169017     0.06100
C556        C  0.69786473  0.30799168  0.02200513     0.03100
C557        C  0.70484888  0.29965799  0.00198464    -0.13000
C558        C  0.69498024  0.30647315  0.98265329     0.00600
C559        C  0.67835756  0.32194905  0.98348201    -0.11500
C560        C  0.67174837  0.33084690  0.00327226     0.03100
C561        C  0.68135167  0.32365645  0.02250995    -0.11000
H562        H  0.71801510  0.28804213  0.00145386     0.08700
H563        H  0.67066953  0.32727618  0.96863371     0.06200
H564        H  0.67609467  0.33038283  0.03786845     0.06100
C565        C  0.69541731  0.66023430  0.01969972     0.03100
C566        C  0.68018969  0.64341437  0.01973312    -0.13000
C567        C  0.67202938  0.63528165  0.00026565     0.00600
C568        C  0.67914547  0.64398063  0.98058369    -0.11500
C569        C  0.69406307  0.66115469  0.98020950     0.03100
C570        C  0.70236862  0.66907958  0.99989821    -0.11000
H571        H  0.67452055  0.63676256  0.03496843     0.08700
H572        H  0.67301823  0.63735041  0.96553886     0.06200
H573        H  0.71412813  0.68210458  0.99983958     0.06100
C574        C  0.54406207  0.16263060  0.17643980     0.03100
C575        C  0.52388439  0.17040813  0.18360507    -0.13000
C576        C  0.50454325  0.16113568  0.17587056     0.00600
C577        C  0.50569259  0.14362264  0.16131988    -0.11500
C578        C  0.52576868  0.13607583  0.15377958     0.03100
C579        C  0.54484721  0.14575120  0.16126023    -0.11000
H580        H  0.52326490  0.18375297  0.19500545     0.08700
H581        H  0.49095088  0.13599141  0.15565191     0.06200
H582        H  0.56039108  0.13985521  0.15553689     0.06100
C583        C  0.20358518  0.46110839  0.17387858     0.03100
C584        C  0.21047437  0.48081977  0.18304445    -0.13000
C585        C  0.20086819  0.50051215  0.17663206     0.00600
C586        C  0.18439206  0.50025346  0.16096124    -0.11500
C587        C  0.17752625  0.48068259  0.15174263     0.03100
C588        C  0.18734946  0.46124529  0.15802194    -0.11000
H589        H  0.22323092  0.48081861  0.19507180     0.08700
H590        H  0.17673578  0.51529082  0.15607140     0.06200
H591        H  0.18186790  0.44609485  0.15102505     0.06100
C592        C  0.19317520  0.16185452  0.51602655     0.03100
C593        C  0.20157166  0.16985656  0.49641012    -0.13000
C594        C  0.19322255  0.16247397  0.47651853     0.00600
C595        C  0.17674916  0.14677480  0.47650880    -0.11500
C596        C  0.16831707  0.13884226  0.49598914     0.03100
C597        C  0.17656234  0.14640699  0.51566247    -0.11000
H598        H  0.21441819  0.18180346  0.49664130     0.08700
H599        H  0.17017838  0.14099496  0.46129615     0.06200
H600        H  0.17006229  0.14019950  0.53075532     0.06100
N601        N  0.01491217  0.95062650  0.50163233    -0.36600
N602        N  0.04798652  0.98408509  0.50092328    -0.57200
N603        N  0.01444223  0.01688602  0.50206943    -0.36600
N604        N  0.98144142  0.98364363  0.50495540    -0.57200
C605        C  0.03289823  0.93862621  0.50530484     0.27000
C606        C  0.99762075  0.93838210  0.50724894     0.27000
C607        C  0.03219366  0.02907687  0.50589137     0.27000
C608        C  0.99704587  0.02882622  0.50794670     0.27000
C609        C  0.06047382  0.96665334  0.49647269     0.35600
C610        C  0.06011049  0.00171865  0.49634023     0.35600
C611        C  0.96886018  0.96606809  0.50164260     0.35600
C612        C  0.96864400  0.00111734  0.50175266     0.35600
C613        C  0.02695721  0.91844376  0.51319217    -0.21900
C614        C  0.00468037  0.91828298  0.51439827    -0.21900
C615        C  0.02601976  0.04898920  0.51432951    -0.21900
C616        C  0.00377425  0.04885110  0.51556870    -0.21900
C617        C  0.08066773  0.97323470  0.48915509    -0.22900
C618        C  0.08042119  0.99547929  0.48902860    -0.22900
C619        C  0.94793461  0.97239907  0.49649173    -0.22900
C620        C  0.94780107  0.99465077  0.49656507    -0.22900
C621        C  0.05439630  0.94493669  0.50037143    -0.18300
C622        C  0.97563045  0.94444586  0.50487612    -0.18300
C623        C  0.97526613  0.02278354  0.50475349    -0.18300
C624        C  0.05360633  0.02331793  0.50024926    -0.18300
H625        H  0.03756088  0.90512004  0.51740154     0.14600
H626        H  0.99479603  0.90482908  0.51975681     0.14600
H627        H  0.03643604  0.06238901  0.51870646     0.14600
H628        H  0.99367659  0.06210939  0.52108541     0.14600
H629        H  0.09423129  0.96307639  0.48458283     0.12900
H630        H  0.09376278  0.00585895  0.48437557     0.12900
H631        H  0.93415197  0.96206484  0.49327413     0.12900
H632        H  0.93391595  0.00488705  0.49339278     0.12900
H633        H  0.01434204  0.96530094  0.49341963     0.26200
H634        H  0.01404537  0.00254451  0.49324424     0.26200
N635        N  0.52721561  0.98008218  0.03279080    -0.36600
N636        N  0.53010328  0.01415254  0.00065373    -0.57200
N637        N  0.52520258  0.98262826  0.96670586    -0.36600
N638        N  0.52078123  0.94849669  0.99861464    -0.57200
C639        C  0.52425006  0.99787416  0.04529125     0.27000
C640        C  0.52007079  0.96283548  0.04424020     0.27000
C641        C  0.52120067  0.00133180  0.95603905     0.27000
C642        C  0.51676620  0.96641062  0.95470394     0.27000
C643        C  0.53626267  0.02516196  0.01847457     0.35600
C644        C  0.53596837  0.02632572  0.98347635     0.35600
C645        C  0.52353127  0.93489136  0.01551051     0.35600
C646        C  0.52252596  0.93632511  0.98051139     0.35600
C647        C  0.51530215  0.99182918  0.06498897    -0.21900
C648        C  0.51274904  0.96968126  0.06435979    -0.21900
C649        C  0.50972072  0.99692611  0.93723415    -0.21900
C650        C  0.50723154  0.97479658  0.93622902    -0.21900
C651        C  0.54630112  0.04437072  0.01267874    -0.22900
C652        C  0.54636359  0.04499342  0.99043046    -0.22900
C653        C  0.52692659  0.91393776  0.00812961    -0.22900
C654        C  0.52628863  0.91484838  0.98589195    -0.22900
C655        C  0.53048049  0.01921285  0.03972768    -0.18300
C656        C  0.52113621  0.94097286  0.03743357    -0.18300
C657        C  0.51884191  0.94417152  0.95938023    -0.18300
C658        C  0.52948983  0.02185667  0.96199473    -0.18300
H659        H  0.51120789  0.00225199  0.07849340     0.14600
H660        H  0.50625673  0.95973781  0.07725904     0.14600
H661        H  0.50423935  0.00838509  0.92516683     0.14600
H662        H  0.49939772  0.96587222  0.92334327     0.14600
H663        H  0.55245734  0.05681905  0.02337764     0.12900
H664        H  0.55264967  0.05804809  0.98056821     0.12900
H665        H  0.52919221  0.89946860  0.01776326     0.12900
H666        H  0.52794164  0.90122072  0.97496592     0.12900
H667        H  0.53572606  0.97941967  0.01825596     0.26200
H668        H  0.53552525  0.98072010  0.97988727     0.26200
N669        N  0.01958613  0.48562496  0.03366241    -0.36600
N670        N  0.98657970  0.48712400  0.00003746    -0.57200
N671        N  0.02029466  0.48812948  0.96722181    -0.36600
N672        N  0.05324499  0.48444861  0.00080129    -0.57200
C673        C  0.00167978  0.48181041  0.04569740     0.27000
C674        C  0.03695830  0.48092286  0.04612520     0.27000
C675        C  0.00261672  0.48535047  0.95460047     0.27000
C676        C  0.03785189  0.48339328  0.95496702     0.27000
C677        C  0.97364639  0.48931920  0.01755101     0.35600
C678        C  0.97406085  0.49121014  0.98259589     0.35600
C679        C  0.06595345  0.48646427  0.01848195     0.35600
C680        C  0.06632529  0.48694285  0.98342464     0.35600
C681        C  0.00773916  0.47491065  0.06618423    -0.21900
C682        C  0.03000389  0.47441532  0.06647682    -0.21900
C683        C  0.00904677  0.47923628  0.93395562    -0.21900
C684        C  0.03126355  0.47790469  0.93421303    -0.21900
C685        C  0.95275292  0.49455507  0.01120330    -0.22900
C686        C  0.95300882  0.49573264  0.98904473    -0.22900
C687        C  0.08726179  0.48998599  0.01229491    -0.22900
C688        C  0.08749466  0.49028981  0.99007778    -0.22900
C689        C  0.98005921  0.48553858  0.03915236    -0.18300
C690        C  0.05890255  0.48367432  0.04008585    -0.18300
C691        C  0.05972657  0.48478715  0.96163268    -0.18300
C692        C  0.98091296  0.48924924  0.96086948    -0.18300
H693        H  0.99722027  0.47089827  0.07963577     0.14600
H694        H  0.03991642  0.46996530  0.08021228     0.14600
H695        H  0.99882820  0.47611374  0.92008224     0.14600
H696        H  0.04141661  0.47351547  0.92058963     0.14600
H697        H  0.93872439  0.49704069  0.02145147     0.12900
H698        H  0.93918189  0.49918227  0.97885430     0.12900
H699        H  0.10124806  0.49180710  0.02268193     0.12900
H700        H  0.10167466  0.49244877  0.97997488     0.12900
H701        H  0.01997485  0.49337837  0.01878883     0.26200
H702        H  0.02049408  0.49512391  0.98248933     0.26200
N703        N  0.54851365  0.48362336  0.00448546    -0.36600
N704        N  0.51583258  0.44989774  0.00237250    -0.57200
N705        N  0.48231727  0.48274843  0.00369676    -0.36600
N706        N  0.51507518  0.51654881  0.00395782    -0.57200
C707        C  0.56095411  0.46616850  0.99989573     0.27000
C708        C  0.56058937  0.50142868  0.00040259     0.27000
C709        C  0.47053020  0.46509451  0.99831554     0.27000
C710        C  0.47001829  0.50031849  0.99928064     0.27000
C711        C  0.53341315  0.43745084  0.00603577     0.35600
C712        C  0.49846025  0.43698368  0.00531783     0.35600
C713        C  0.53237627  0.52950202  0.00725904     0.35600
C714        C  0.49732791  0.52900521  0.00690170     0.35600
C715        C  0.58124908  0.47290927  0.99305636    -0.21900
C716        C  0.58106258  0.49515770  0.99345696    -0.21900
C717        C  0.45044816  0.47150960  0.99058329    -0.21900
C718        C  0.45010343  0.49375881  0.99123892    -0.21900
C719        C  0.52722360  0.41649278  0.01119832    -0.22900
C720        C  0.50500573  0.41619984  0.01075388    -0.22900
C721        C  0.52559840  0.55038041  0.01209771    -0.22900
C722        C  0.50335179  0.55004930  0.01193528    -0.22900
C723        C  0.55494235  0.44431850  0.00297130    -0.18300
C724        C  0.55412903  0.52310227  0.00419430    -0.18300
C725        C  0.47586791  0.52208869  0.00320050    -0.18300
C726        C  0.47689347  0.44333239  0.00142692    -0.18300
H727        H  0.59488490  0.46283676  0.98850430     0.14600
H728        H  0.59462383  0.50546168  0.98934249     0.14600
H729        H  0.43733063  0.46121852  0.98518484     0.14600
H730        H  0.43667618  0.50394699  0.98639626     0.14600
H731        H  0.53763384  0.40277681  0.01455326     0.12900
H732        H  0.49485089  0.40221847  0.01370799     0.12900
H733        H  0.53561108  0.56446510  0.01502411     0.12900
H734        H  0.49282753  0.56382256  0.01470412     0.12900
H735        H  0.53366304  0.48333987  0.01240140     0.26200
H736        H  0.49682502  0.48275332  0.01219628     0.26200
N737        N  0.01842160  0.51392204  0.49931293    -0.36600
N738        N  0.02214591  0.48130400  0.46548163    -0.57200
N739        N  0.02069232  0.44759896  0.49836719    -0.36600
N740        N  0.01969621  0.48027754  0.53221178    -0.57200
C741        C  0.02261266  0.52661913  0.48197040     0.27000
C742        C  0.02195413  0.52602816  0.51722391     0.27000
C743        C  0.02588429  0.43566264  0.48074505     0.27000
C744        C  0.02445766  0.43512851  0.51595875     0.27000
C745        C  0.01839266  0.49887539  0.45298283     0.35600
C746        C  0.01989800  0.46383498  0.45247024     0.35600
C747        C  0.01529047  0.49751770  0.54496077     0.35600
C748        C  0.01619452  0.46249748  0.54445182     0.35600
C749        C  0.02863154  0.54711525  0.48890371    -0.21900
C750        C  0.02832627  0.54671440  0.51116850    -0.21900
C751        C  0.03282417  0.41528249  0.48719607    -0.21900
C752        C  0.03191959  0.41494460  0.50943908    -0.21900
C753        C  0.01410743  0.49257238  0.43187609    -0.22900
C754        C  0.01505490  0.47035782  0.43155149    -0.22900
C755        C  0.00913162  0.49067418  0.56544016    -0.22900
C756        C  0.00972344  0.46845743  0.56512419    -0.22900
C757        C  0.01983919  0.52059083  0.46007960    -0.18300
C758        C  0.01825233  0.51934896  0.53882688    -0.18300
C759        C  0.02000632  0.44099234  0.53763646    -0.18300
C760        C  0.02302242  0.44210021  0.45897941    -0.18300
H761        H  0.03269140  0.56096530  0.47895084     0.14600
H762        H  0.03210225  0.56021927  0.52169515     0.14600
H763        H  0.03774320  0.40192935  0.47692399     0.14600
H764        H  0.03601468  0.40128642  0.51963641     0.14600
H765        H  0.01073166  0.50290123  0.41812612     0.12900
H766        H  0.01250388  0.46018397  0.41750447     0.12900
H767        H  0.00489917  0.50064702  0.57924012     0.12900
H768        H  0.00599361  0.45791008  0.57862201     0.12900
H769        H  0.01106675  0.49881260  0.49888514     0.26200
H770        H  0.01254466  0.46231253  0.49827572     0.26200
N771        N  0.55034993  0.97822736  0.49912523    -0.36600
N772        N  0.51791521  0.97792576  0.53346119    -0.57200
N773        N  0.48388094  0.97625312  0.50124028    -0.36600
N774        N  0.51620770  0.97910275  0.46692802    -0.57200
C775        C  0.56281676  0.98323703  0.51645423     0.27000
C776        C  0.56195950  0.98310880  0.48114303     0.27000
C777        C  0.47208982  0.98006930  0.51935764     0.27000
C778        C  0.47114013  0.98126704  0.48414016     0.27000
C779        C  0.53595274  0.97502276  0.54547504     0.35600
C780        C  0.50094794  0.97334395  0.54654169     0.35600
C781        C  0.53336717  0.97625850  0.45359848     0.35600
C782        C  0.49832146  0.97589338  0.45476337     0.35600
C783        C  0.58262662  0.99114177  0.50938587    -0.21900
C784        C  0.58210958  0.99099435  0.48710200    -0.21900
C785        C  0.45160769  0.98734680  0.51369845    -0.21900
C786        C  0.45099900  0.98807350  0.49145289    -0.21900
C787        C  0.53041051  0.96862645  0.56628111    -0.22900
C788        C  0.50821955  0.96753661  0.56694378    -0.22900
C789        C  0.52633316  0.97132422  0.43286374    -0.22900
C790        C  0.50411642  0.97118542  0.43358529    -0.22900
C791        C  0.55725949  0.97957538  0.53841653    -0.18300
C792        C  0.55522227  0.97959717  0.45951830    -0.18300
C793        C  0.47683986  0.97875710  0.46210870    -0.18300
C794        C  0.47897367  0.97599416  0.54079675    -0.18300
H795        H  0.59616461  0.99625443  0.51925809     0.14600
H796        H  0.59513652  0.99603432  0.47648893     0.14600
H797        H  0.43841056  0.99156704  0.52447693     0.14600
H798        H  0.43724836  0.99297558  0.48175719     0.14600
H799        H  0.54122059  0.96530801  0.57966051     0.12900
H800        H  0.49853824  0.96326502  0.58092965     0.12900
H801        H  0.53616186  0.96845826  0.41861587     0.12900
H802        H  0.49344667  0.96822290  0.42001278     0.12900
H803        H  0.53599961  0.96983774  0.49950970     0.26200
H804        H  0.49857960  0.96849934  0.50054486     0.26200
C805        C  0.08565798  0.07317664  0.48330124    -0.11400
C806        C  0.10197235  0.07336314  0.49905080     0.15200
C807        C  0.10206693  0.05739931  0.51540179     0.02100
C808        C  0.08632192  0.04115117  0.51518473    -0.15700
C809        C  0.07019885  0.04069107  0.49921311    -0.10600
C810        C  0.06981484  0.05699480  0.48313285     0.08800
C811        C  0.11896808  0.09008747  0.49762528     0.09800
S812        S  0.12179725  0.05683968  0.53690722    -0.24900
H813        H  0.08645346  0.02886466  0.52771973     0.20100
S814        S  0.04966937  0.05810306  0.46200525    -0.30600
H815        H  0.08551700  0.08552768  0.47082822     0.10400
C816        C  0.13949356  0.08542653  0.48875006     0.03600
C817        C  0.15521567  0.10179826  0.48790211    -0.12900
C818        C  0.15075592  0.12264845  0.49584760    -0.08600
C819        C  0.12999105  0.12734793  0.50429164     0.07000
C820        C  0.11435538  0.11100739  0.50514147    -0.13600
S821        S  0.14558437  0.05865742  0.47854106    -0.30600
H822        H  0.17115340  0.09832116  0.48140946     0.11300
S823        S  0.12241765  0.15385834  0.51405853    -0.27700
H824        H  0.09847177  0.11457776  0.51175560     0.08500
H825        H  0.04556068  0.03572943  0.46105338     0.26900
H826        H  0.16708140  0.06296870  0.47231200     0.21700
H827        H  0.13575260  0.16559108  0.49979383     0.27100
H828        H  0.12538864  0.07930447  0.53774429     0.15900
C829        C  0.10030095  0.50073793  0.08222280    -0.11400
C830        C  0.10867384  0.48059750  0.08860730     0.15200
C831        C  0.10002180  0.46141434  0.07957240     0.02100
C832        C  0.08380412  0.46287894  0.06383566    -0.15700
C833        C  0.07555141  0.48304050  0.05738080    -0.10600
C834        C  0.08372872  0.50216356  0.06687718     0.08800
C835        C  0.12651485  0.48029386  0.10457091     0.09800
S836        S  0.10896374  0.43465524  0.08727779    -0.24900
H837        H  0.07745792  0.44819373  0.05660543     0.20100
S838        S  0.07426890  0.52883891  0.05954919    -0.30600
H839        H  0.10683298  0.51547133  0.08918779     0.10400
C840        C  0.14791790  0.47499261  0.09853723     0.03600
C841        C  0.16427087  0.47502112  0.11429980    -0.12900
C842        C  0.15962977  0.48037649  0.13590521    -0.08600
C843        C  0.13814000  0.48551705  0.14190765     0.07000
C844        C  0.12189972  0.48569121  0.12614433    -0.13600
S845        S  0.15451796  0.46892143  0.07067662    -0.30600
H846        H  0.18080138  0.47120566  0.10978928     0.11300
S847        S  0.13034591  0.49158580  0.16942340    -0.27700
H848        H  0.10543194  0.48970135  0.13077860     0.08500
H849        H  0.05293971  0.52282427  0.05445630     0.26900
H850        H  0.17625288  0.46309030  0.07426702     0.21700
H851        H  0.14576319  0.47809988  0.17937912     0.27100
H852        H  0.11574544  0.44003774  0.10830739     0.15900
C853        C  0.52027068  0.08162456  0.12540989    -0.11400
C854        C  0.52931940  0.08634527  0.10510659     0.15200
C855        C  0.53731105  0.10737269  0.10098736     0.02100
C856        C  0.53593209  0.12320211  0.11716552    -0.15700
C857        C  0.52695133  0.11849492  0.13752278    -0.10600
C858        C  0.51922471  0.09735692  0.14172249     0.08800
C859        C  0.52982824  0.06907986  0.08849179     0.09800
S860        S  0.54926404  0.11508965  0.07545338    -0.24900
H861        H  0.54188562  0.13938726  0.11384960     0.20100
S862        S  0.50832154  0.08929200  0.16760264    -0.30600
H863        H  0.51418062  0.06547026  0.12861773     0.10400
C864        C  0.54515120  0.05215480  0.08937405     0.03600
C865        C  0.54498022  0.03600530  0.07336746    -0.12900
C866        C  0.52966441  0.03639579  0.05661028    -0.08600
C867        C  0.51412681  0.05325677  0.05596711     0.07000
C868        C  0.51456534  0.06953139  0.07173700    -0.13600
S869        S  0.56521168  0.05146086  0.11060973    -0.30600
H870        H  0.55682942  0.02306239  0.07376941     0.11300
S871        S  0.49322556  0.05482558  0.03562353    -0.27700
H872        H  0.50271605  0.08249236  0.07115882     0.08500
H873        H  0.52122595  0.10324858  0.18012769     0.26900
H874        H  0.57645455  0.03310174  0.10306470     0.21700
H875        H  0.49119215  0.03238125  0.03231726     0.27100
H876        H  0.55748091  0.09454826  0.07000830     0.15900
C877        C  0.59654315  0.56379355  0.02236761    -0.11400
C878        C  0.60464539  0.57083569  0.00234913     0.15200
C879        C  0.59609045  0.56212182  0.98301921     0.02100
C880        C  0.57908862  0.54725399  0.98411097    -0.15700
C881        C  0.57117076  0.53999867  0.00411757    -0.10600
C882        C  0.58010884  0.54824745  0.02346948     0.08800
C883        C  0.62170798  0.58758031  0.00210479     0.09800
S884        S  0.60640522  0.56899245  0.95654682    -0.24900
H885        H  0.57240938  0.54071449  0.96926171     0.20100
S886        S  0.57103574  0.53988554  0.04996019    -0.30600
H887        H  0.60314050  0.57041221  0.03721764     0.10400
C888        C  0.61743266  0.60873560  0.99465994     0.03600
C889        C  0.63433655  0.62382577  0.99374120    -0.12900
C890        C  0.65528905  0.61828493  0.00053036    -0.08600
C891        C  0.65945101  0.59719128  0.00836324     0.07000
C892        C  0.64257960  0.58210266  0.00918158    -0.13600
S893        S  0.59030657  0.61671793  0.98709793    -0.30600
H894        H  0.63120427  0.64016107  0.98814552     0.11300
S895        S  0.68590394  0.58848347  0.01721643    -0.27700
H896        H  0.64580712  0.56584268  0.01498023     0.08500
H897        H  0.56532956  0.51860876  0.04423348     0.26900
H898        H  0.59531487  0.63816918  0.98126589     0.21700
H899        H  0.69779069  0.60196475  0.00322882     0.27100
H900        H  0.62789322  0.57262226  0.96311263     0.15900
C901        C  0.59184545  0.39841668  0.98509833    -0.11400
C902        C  0.60469366  0.39582373  0.00361359     0.15200
C903        C  0.60135841  0.40942609  0.02171820     0.02100
C904        C  0.58505349  0.42510631  0.02099225    -0.15700
C905        C  0.57219677  0.42768049  0.00250424    -0.10600
C906        C  0.57567727  0.41426407  0.98429929     0.08800
C907        C  0.62149610  0.37885804  0.00349371     0.09800
S908        S  0.61700826  0.40744674  0.04630759    -0.24900
H909        H  0.58231920  0.43541597  0.03495277     0.20100
S910        S  0.55986518  0.41628480  0.95982229    -0.30600
H911        H  0.59445227  0.38799830  0.97119586     0.10400
C912        C  0.61858733  0.35911998  0.01454244     0.03600
C913        C  0.63543365  0.34384747  0.01466421    -0.12900
C914        C  0.65496829  0.34791985  0.00371774    -0.08600
C915        C  0.65773918  0.36777915  0.99264196     0.07000
C916        C  0.64089632  0.38289742  0.99246108    -0.13600
S917        S  0.59321620  0.35323228  0.02790427    -0.30600
H918        H  0.63328837  0.32851331  0.02290603     0.11300
S919        S  0.68250835  0.37505299  0.97890939    -0.27700
H920        H  0.64308142  0.39816330  0.98406317     0.08500
H921        H  0.55480791  0.43841572  0.96160605     0.26900
H922        H  0.59935173  0.33299280  0.03639299     0.21700
H923        H  0.69642110  0.36395752  0.99311157     0.27100
H924        H  0.63591634  0.39881216  0.03700819     0.15900
C925        C  0.39059021  0.58416646  0.98917879    -0.11400
C926        C  0.40913670  0.58737615  0.00184147     0.15200
C927        C  0.41141330  0.60671278  0.01382449     0.02100
C928        C  0.39487683  0.62215894  0.01326813    -0.15700
C929        C  0.37617273  0.61895905  0.00075458    -0.10600
C930        C  0.37397186  0.59958359  0.98869703     0.08800
C931        C  0.42572670  0.57018443  0.00231206     0.09800
S932        S  0.43494408  0.61274034  0.03007722    -0.24900
H933        H  0.39676357  0.63701671  0.02244555     0.20100
S934        S  0.35009824  0.59305902  0.97320319    -0.30600
H935        H  0.38883032  0.56927110  0.98003455     0.10400
C936        C  0.42856707  0.55683250  0.02060351     0.03600
C937        C  0.44506106  0.54121682  0.02047508    -0.12900
C938        C  0.45853319  0.53865001  0.00234738    -0.08600
C939        C  0.45525991  0.55165513  0.98384959     0.07000
C940        C  0.43898040  0.56737619  0.98409170    -0.13600
S941        S  0.41102889  0.55949612  0.04390499    -0.30600
H942        H  0.44756408  0.53096018  0.03447256     0.11300
S943        S  0.47143430  0.54916165  0.95961869    -0.27700
H944        H  0.43664066  0.57757402  0.97000323     0.08500
H945        H  0.33537410  0.60349956  0.98714617     0.26900
H946        H  0.42094862  0.54334787  0.05654832     0.21700
H947        H  0.47558680  0.52685200  0.96144581     0.27100
H948        H  0.44984500  0.60023540  0.01821317     0.15900
C949        C  0.69402518  0.68266790  0.92244996    -0.11400
C950        C  0.71625260  0.68304234  0.91782263     0.15200
C951        C  0.73120320  0.67820455  0.93443546     0.02100
C952        C  0.72358120  0.67149280  0.95472251    -0.15700
C953        C  0.70127917  0.67030680  0.95915924    -0.10600
C954        C  0.68639886  0.67678771  0.94296393     0.08800
C955        C  0.72319739  0.68797664  0.89537774     0.09800
S956        S  0.76013049  0.68014917  0.93071387    -0.24900
H957        H  0.73516387  0.66686630  0.96705428     0.20100
S958        S  0.65754937  0.67840120  0.94749258    -0.30600
H959        H  0.68250919  0.68692922  0.90991950     0.10400
C960        C  0.73240345  0.67194176  0.88191694     0.03600
C961        C  0.73865588  0.67734260  0.86074465    -0.12900
C962        C  0.73548137  0.69834197  0.85255309    -0.08600
C963        C  0.72634184  0.71438923  0.86617002     0.07000
C964        C  0.72008434  0.70896728  0.88727834    -0.13600
S965        S  0.73516028  0.64433901  0.89129376    -0.30600
H966        H  0.74546874  0.66499733  0.85028101     0.11300
S967        S  0.72309924  0.74224333  0.85797085    -0.27700
H968        H  0.71306988  0.72131040  0.89764019     0.08500
H969        H  0.65897450  0.68358879  0.96962792     0.26900
H970        H  0.74555387  0.63614463  0.87272320     0.21700
H971        H  0.74234815  0.74308768  0.84577248     0.27100
H972        H  0.75949001  0.69670563  0.91509949     0.15900
C973        C  0.64281998  0.99323493  0.60120824    -0.11400
C974        C  0.62187589  0.98576687  0.60585909     0.15200
C975        C  0.61681065  0.97895891  0.62710255     0.02100
C976        C  0.63268044  0.97999448  0.64321605    -0.15700
C977        C  0.65370650  0.98726829  0.63855617    -0.10600
C978        C  0.65883511  0.99385821  0.61723683     0.08800
C979        C  0.60576972  0.98494791  0.58816631     0.09800
S980        S  0.59049298  0.96872835  0.63466756    -0.24900
H981        H  0.62869696  0.97480348  0.65950754     0.20100
S982        S  0.68557061  0.00259198  0.60928519    -0.30600
H983        H  0.64678923  0.99829903  0.58487558     0.10400
C984        C  0.58917998  0.00053309  0.58640641     0.03600
C985        C  0.57381741  0.99860493  0.56980722    -0.12900
C986        C  0.57451385  0.98118444  0.55516039    -0.08600
C987        C  0.59116672  0.96556487  0.55702127     0.07000
C988        C  0.60680195  0.96783500  0.57324946    -0.13600
S989        S  0.58766839  0.02289414  0.60522760    -0.30600
H990        H  0.56106343  0.01056468  0.56826669     0.11300
S991        S  0.59311803  0.94218895  0.53955560    -0.27700
H992        H  0.61950595  0.95578948  0.57471352     0.08500
H993        H  0.69697714  0.98916133  0.62369439     0.26900
H994        H  0.56776568  0.03122064  0.59789894     0.21700
H995        H  0.57080180  0.93999062  0.53567372     0.27100
H996        H  0.58555293  0.95923892  0.61458827     0.15900
C997        C  0.70135330  0.86710283  0.71721735    -0.11400
C998        C  0.71797934  0.88002942  0.70867841     0.15200
C999        C  0.73890012  0.87099776  0.70611179     0.02100
C1000       C  0.74241751  0.84913636  0.71122941    -0.15700
C1001       C  0.72572277  0.83613063  0.71961991    -0.10600
C1002       C  0.70491066  0.84533771  0.72256089     0.08800
C1003       C  0.71252098  0.90241713  0.70164547     0.09800
S1004       S  0.76185472  0.88652054  0.69677745    -0.24900
H1005       H  0.75850876  0.84237567  0.70920927     0.20100
S1006       S  0.68190087  0.82997089  0.73196825    -0.30600
H1007       H  0.68524662  0.87386903  0.71910474     0.10400
C1008       C  0.71242207  0.90824332  0.67956369     0.03600
C1009       C  0.70643979  0.92933627  0.67359491    -0.12900
C1010       C  0.69957562  0.94460029  0.68907285    -0.08600
C1011       C  0.69890141  0.93844692  0.71112115     0.07000
C1012       C  0.70576702  0.91763829  0.71718028    -0.13600
S1013       S  0.71870773  0.88853883  0.65881031    -0.30600
H1014       H  0.70672158  0.93390896  0.65667193     0.11300
S1015       S  0.68812906  0.95574926  0.73206323    -0.27700
H1016       H  0.70518918  0.91301056  0.73409724     0.08500
H1017       H  0.68758180  0.81077199  0.72103539     0.26900
H1018       H  0.71309094  0.90152113  0.64096150     0.21700
H1019       H  0.67204291  0.96526434  0.71905612     0.27100
H1020       H  0.75429224  0.90681500  0.70387089     0.15900
C1021       C  0.70502067  0.26992463  0.88479229    -0.11400
C1022       C  0.72196506  0.27730462  0.89792443     0.15200
C1023       C  0.74311825  0.27868482  0.88928661     0.02100
C1024       C  0.74666337  0.27340430  0.86750242    -0.15700
C1025       C  0.72963913  0.26617135  0.85427590    -0.10600
C1026       C  0.70854726  0.26456099  0.86308762     0.08800
C1027       C  0.71651071  0.28484091  0.91999992     0.09800
S1028       S  0.76616694  0.28697091  0.90518852    -0.24900
H1029       H  0.76292290  0.27450385  0.86094079     0.20100
S1030       S  0.68520880  0.25706741  0.84722987    -0.30600
H1031       H  0.68872987  0.26909728  0.89132460     0.10400
C1032       C  0.71542214  0.30710855  0.92494505     0.03600
C1033       C  0.70875689  0.31362817  0.94564379    -0.12900
C1034       C  0.70248881  0.29837679  0.96133303    -0.08600
C1035       C  0.70299868  0.27607868  0.95606341     0.07000
C1036       C  0.71036601  0.26955902  0.93562842    -0.13600
S1037       S  0.72150337  0.32724903  0.90459661    -0.30600
H1038       H  0.70815652  0.33071903  0.94960323     0.11300
S1039       S  0.69309628  0.25529415  0.97400723    -0.27700
H1040       H  0.71059556  0.25246662  0.93157594     0.08500
H1041       H  0.69199691  0.26778590  0.82830054     0.26900
H1042       H  0.71597769  0.34550768  0.91709742     0.21700
H1043       H  0.67630823  0.26791216  0.98290880     0.27100
H1044       H  0.75800739  0.28002196  0.92527781     0.15900
C1045       C  0.74686583  0.09581381  0.70981474    -0.11400
C1046       C  0.72500472  0.09043226  0.70689402     0.15200
C1047       C  0.70906081  0.10662998  0.70971544     0.02100
C1048       C  0.71529565  0.12781233  0.71499317    -0.15700
C1049       C  0.73723297  0.13348107  0.71720694    -0.10600
C1050       C  0.75313082  0.11698642  0.71516794     0.08800
C1051       C  0.71923753  0.06793831  0.70059649     0.09800
S1052       S  0.68051615  0.10141736  0.70633869    -0.24900
H1053       H  0.70288876  0.14014540  0.71664502     0.20100
S1054       S  0.78154265  0.12155822  0.72009701    -0.30600
H1055       H  0.75913157  0.08335005  0.70806209     0.10400
C1056       C  0.72200203  0.06067331  0.67912887     0.03600
C1057       C  0.71449358  0.04004091  0.67320281    -0.12900
C1058       C  0.70410895  0.02647987  0.68825526    -0.08600
C1059       C  0.70171898  0.03368501  0.70989239     0.07000
C1060       C  0.70952193  0.05418089  0.71585822    -0.13600
S1061       S  0.73411787  0.07813773  0.65901605    -0.30600
H1062       H  0.71631619  0.03454154  0.65664353     0.11300
S1063       S  0.68777579  0.01815926  0.73032608    -0.27700
H1064       H  0.70724974  0.05981778  0.73233080     0.08500
H1065       H  0.77818637  0.13578205  0.73761256     0.26900
H1066       H  0.73095602  0.06431602  0.64118069     0.21700
H1067       H  0.67230588  0.00912378  0.71629825     0.27100
H1068       H  0.68277961  0.08603951  0.68968655     0.15900
C1069       C  0.02590652  0.35460390  0.60000051    -0.11400
C1070       C  0.01895831  0.37580031  0.60433779     0.15200
C1071       C  0.01069326  0.38105356  0.62503945     0.02100
C1072       C  0.00972319  0.36497394  0.64093403    -0.15700
C1073       C  0.01678827  0.34379379  0.63666646    -0.10600
C1074       C  0.02482007  0.33851390  0.61589168     0.08800
C1075       C  0.02006629  0.39188050  0.58677172     0.09800
S1076       S  0.00164118  0.40788708  0.63263123    -0.24900
H1077       H  0.00373277  0.36908837  0.65693251     0.20100
S1078       S  0.03366024  0.31159801  0.60857279    -0.30600
H1079       H  0.03208852  0.35056220  0.58406080     0.10400
C1080       C  0.03749309  0.40648244  0.58504315     0.03600
C1081       C  0.03720776  0.42222499  0.56870158    -0.12900
C1082       C  0.01971827  0.42369369  0.55428134    -0.08600
C1083       C  0.00233446  0.40893659  0.55603022     0.07000
C1084       C  0.00286640  0.39298460  0.57205423    -0.13600
S1085       S  0.05986932  0.40517964  0.60379293    -0.30600
H1086       H  0.05047190  0.43360009  0.56720740     0.11300
S1087       S  0.97890818  0.40983414  0.53862355    -0.27700
H1088       H  0.98946045  0.38174560  0.57351722     0.08500
H1089       H  0.01987301  0.30044784  0.62287011     0.26900
H1090       H  0.07192218  0.42226304  0.59472877     0.21700
H1091       H  0.97912819  0.43232234  0.53505926     0.27100
H1092       H  0.99969084  0.41698569  0.61192428     0.15900
C1093       C  0.94042132  0.31118186  0.70592576    -0.11400
C1094       C  0.93417675  0.28936503  0.70528252     0.15200
C1095       C  0.94936467  0.27350501  0.69876011     0.02100
C1096       C  0.97019388  0.27989713  0.69235283    -0.15700
C1097       C  0.97627920  0.30181417  0.69237686    -0.10600
C1098       C  0.96128970  0.31755680  0.69979036     0.08800
C1099       C  0.91152159  0.28386937  0.71092077     0.09800
S1100       S  0.94296188  0.24501199  0.69745590    -0.24900
H1101       H  0.98152439  0.26774166  0.68661929     0.20100
S1102       S  0.96770934  0.34601984  0.70178062    -0.30600
H1103       H  0.92886090  0.32336083  0.71113371     0.10400
C1104       C  0.90466287  0.28270204  0.73261991     0.03600
C1105       C  0.88290315  0.27807379  0.73729109    -0.12900
C1106       C  0.86772098  0.27441547  0.72069828    -0.08600
C1107       C  0.87486961  0.27546030  0.69887228     0.07000
C1108       C  0.89656707  0.28028565  0.69427581    -0.13600
S1109       S  0.92376535  0.28679932  0.75435658    -0.30600
H1110       H  0.87772753  0.27714591  0.75401839     0.11300
S1111       S  0.85701396  0.27202751  0.67614963    -0.27700
H1112       H  0.90184929  0.28136372  0.67756314     0.08500
H1113       H  0.99001573  0.34315751  0.70539940     0.26900
H1114       H  0.90923060  0.28295503  0.77148979     0.21700
H1115       H  0.85329595  0.25015396  0.68112043     0.27100
H1116       H  0.92683132  0.24507398  0.71352694     0.15900
C1117       C  0.03177692  0.55381499  0.58808187    -0.11400
C1118       C  0.01409002  0.56807069  0.58843797     0.15200
C1119       C  0.99787665  0.56634534  0.57242808     0.02100
C1120       C  0.99979872  0.55047028  0.55637949    -0.15700
C1121       C  0.01752524  0.53623299  0.55595913    -0.10600
C1122       C  0.03378853  0.53805230  0.57193828     0.08800
C1123       C  0.01368731  0.58525527  0.60503945     0.09800
S1124       S  0.97446108  0.58387161  0.57140723    -0.24900
H1125       H  0.98729147  0.54906689  0.54416056     0.20100
S1126       S  0.05751116  0.52094862  0.57257417    -0.30600
H1127       H  0.04431845  0.55528396  0.60025815     0.10400
C1128       C  0.00737949  0.58090315  0.62652676     0.03600
C1129       C  0.00721645  0.59780248  0.64173409    -0.12900
C1130       C  0.01356394  0.61883002  0.63585535    -0.08600
C1131       C  0.01984811  0.62308993  0.61426485     0.07000
C1132       C  0.01995595  0.60624043  0.59914424    -0.13600
S1133       S  0.99931901  0.55391155  0.63442268    -0.30600
H1134       H  0.00232863  0.59466555  0.65828566     0.11300
S1135       S  0.02760676  0.64965326  0.60489861    -0.27700
H1136       H  0.02481050  0.60951178  0.58259083     0.08500
H1137       H  0.05856838  0.51699852  0.55018612     0.26900
H1138       H  0.99716973  0.55824154  0.65668946     0.21700
H1139       H  0.01404033  0.66136067  0.61899118     0.27100
H1140       H  0.97407237  0.58965443  0.59340074     0.15900
C1141       C  0.94640969  0.67847138  0.71169780    -0.11400
C1142       C  0.93109996  0.68422580  0.69592052     0.15200
C1143       C  0.93676232  0.68272887  0.67382521     0.02100
C1144       C  0.95748749  0.67564563  0.66800934    -0.15700
C1145       C  0.97270336  0.66933047  0.68369428    -0.10600
C1146       C  0.96696756  0.67069646  0.70585451     0.08800
C1147       C  0.90925976  0.69146570  0.70284953     0.09800
S1148       S  0.91818675  0.68921670  0.65224224    -0.24900
H1149       H  0.96167648  0.67466743  0.65098337     0.20100
S1150       S  0.98458617  0.66184150  0.72737641    -0.30600
H1151       H  0.94207027  0.67949624  0.72868098     0.10400
C1152       C  0.89392667  0.67668425  0.71100730     0.03600
C1153       C  0.87300504  0.68394845  0.71618626    -0.12900
C1154       C  0.86689977  0.70577359  0.71336866    -0.08600
C1155       C  0.88271372  0.72066753  0.70576219     0.07000
C1156       C  0.90350802  0.71328525  0.70038767    -0.13600
S1157       S  0.90065798  0.64831201  0.71376582    -0.30600
H1158       H  0.86117183  0.67236508  0.72194081     0.11300
S1159       S  0.87787048  0.74934302  0.70302288    -0.27700
H1160       H  0.91539238  0.72467361  0.69427328     0.08500
H1161       H  0.99408945  0.64469945  0.71572168     0.26900
H1162       H  0.88048658  0.64147568  0.72188307     0.21700
H1163       H  0.86734783  0.75124459  0.72317424     0.27100
H1164       H  0.89925785  0.68263734  0.66306371     0.15900
C1165       C  0.30776272  0.71249903  0.89105443    -0.11400
C1166       C  0.31058064  0.69059292  0.89637556     0.15200
C1167       C  0.30707661  0.67468312  0.88027474     0.02100
C1168       C  0.30122469  0.68102960  0.85928470    -0.15700
C1169       C  0.29916290  0.70302528  0.85368509    -0.10600
C1170       C  0.30192747  0.71886526  0.87008597     0.08800
C1171       C  0.31682097  0.68480553  0.91888205     0.09800
S1172       S  0.31040943  0.64606229  0.88527173    -0.24900
H1173       H  0.29902682  0.66865759  0.84702136     0.20100
S1174       S  0.29726862  0.74737017  0.86570604    -0.30600
H1175       H  0.30989201  0.72474641  0.90345797     0.10400
C1176       C  0.33752419  0.68984083  0.92713809     0.03600
C1177       C  0.34331429  0.68270522  0.94791880    -0.12900
C1178       C  0.32881031  0.67075659  0.96071369    -0.08600
C1179       C  0.30791069  0.66617064  0.95263025     0.07000
C1180       C  0.30207054  0.67345538  0.93195719    -0.13600
S1181       S  0.35701185  0.70438289  0.91084695    -0.30600
H1182       H  0.35938059  0.68600418  0.95411056     0.11300
S1183       S  0.28831390  0.65035511  0.96745105    -0.27700
H1184       H  0.28612682  0.66965100  0.92570445     0.08500
H1185       H  0.27919637  0.74429627  0.85218527     0.26900
H1186       H  0.37276199  0.70686316  0.92709587     0.21700
H1187       H  0.30333499  0.63656220  0.97757440     0.27100
H1188       H  0.32709808  0.64814131  0.90059416     0.15900
C1189       C  0.12678962  0.70664831  0.70409413    -0.11400
C1190       C  0.11860518  0.68550660  0.70545046     0.15200
C1191       C  0.13182880  0.66894899  0.71416496     0.02100
C1192       C  0.15251953  0.67403326  0.72196884    -0.15700
C1193       C  0.16080558  0.69516426  0.72051169    -0.10600
C1194       C  0.14758518  0.71168717  0.71162382     0.08800
C1195       C  0.09614819  0.68131337  0.69796078     0.09800
S1196       S  0.12356527  0.64091948  0.71517896    -0.24900
H1197       H  0.16258078  0.66118152  0.72844405     0.20100
S1198       S  0.15588178  0.73966799  0.71022267    -0.30600
H1199       H  0.11670852  0.71942210  0.69749178     0.10400
C1200       C  0.07936172  0.67619744  0.71261038     0.03600
C1201       C  0.05878152  0.67072414  0.70464575    -0.12900
C1202       C  0.05445001  0.67080999  0.68232486    -0.08600
C1203       C  0.07087892  0.67767516  0.66784455     0.07000
C1204       C  0.09157011  0.68248094  0.67576482    -0.13600
S1205       S  0.08411911  0.67677146  0.74144980    -0.30600
H1206       H  0.04616674  0.66576304  0.71578662     0.11300
S1207       S  0.06637482  0.68115925  0.63920952    -0.27700
H1208       H  0.10425377  0.68710423  0.66452840     0.08500
H1209       H  0.16762709  0.73939717  0.72971922     0.26900
H1210       H  0.06275514  0.67201664  0.74781118     0.21700
H1211       H  0.04425398  0.68634958  0.64105451     0.27100
H1212       H  0.10988603  0.64159301  0.69702105     0.15900
C1213       C  0.41743319  0.97195487  0.62803233    -0.11400
C1214       C  0.41244820  0.97817341  0.60677038     0.15200
C1215       C  0.39103167  0.98431166  0.60160630     0.02100
C1216       C  0.37516739  0.98425048  0.61780791    -0.15700
C1217       C  0.38016586  0.97822166  0.63911902    -0.10600
C1218       C  0.40158026  0.97200880  0.64427771     0.08800
C1219       C  0.42981715  0.97758833  0.59026521     0.09800
S1220       S  0.38283411  0.99212714  0.57468791    -0.24900
H1221       H  0.35873956  0.98896942  0.61378393     0.20100
S1222       S  0.40976531  0.96412958  0.67117425    -0.30600
H1223       H  0.43384600  0.96714063  0.63199717     0.10400
C1224       C  0.44561202  0.99402298  0.58908405     0.03600
C1225       C  0.46163986  0.99297094  0.57299477    -0.12900
C1226       C  0.46234892  0.97563965  0.55827497    -0.08600
C1227       C  0.44678266  0.95893400  0.55985472     0.07000
C1228       C  0.43053741  0.96023747  0.57562954    -0.13600
S1229       S  0.44489496  0.01668101  0.60759409    -0.30600
H1230       H  0.47352696  0.00579175  0.57161959     0.11300
S1231       S  0.44682110  0.93559409  0.54226756    -0.27700
H1232       H  0.41847460  0.94752919  0.57667360     0.08500
H1233       H  0.39483123  0.97719868  0.68238888     0.26900
H1234       H  0.46428962  0.02639388  0.60059856     0.21700
H1235       H  0.46937138  0.93492021  0.53910078     0.27100
H1236       H  0.40285554  0.00077466  0.56816912     0.15900
C1237       C  0.33259254  0.90406261  0.70363992    -0.11400
C1238       C  0.31066847  0.89937358  0.70001465     0.15200
C1239       C  0.29698485  0.91580369  0.69177342     0.02100
C1240       C  0.30592016  0.93572628  0.68552414    -0.15700
C1241       C  0.32810638  0.94002411  0.68820467    -0.10600
C1242       C  0.34131860  0.92427412  0.69828401     0.08800
C1243       C  0.30296594  0.87702183  0.70450102     0.09800
S1244       S  0.26810974  0.91238729  0.68888300    -0.24900
H1245       H  0.29553155  0.94787563  0.67826450     0.20100
S1246       S  0.36929066  0.92910361  0.70514864    -0.30600
H1247       H  0.34304407  0.89179165  0.71060487     0.10400
C1248       C  0.29634822  0.86298520  0.68770460     0.03600
C1249       C  0.29019593  0.84164736  0.69268191    -0.12900
C1250       C  0.29111836  0.83381498  0.71401024    -0.08600
C1251       C  0.29763632  0.84796312  0.73078936     0.07000
C1252       C  0.30361124  0.86927709  0.72584268    -0.13600
S1253       S  0.29701276  0.87175040  0.65978984    -0.30600
H1254       H  0.28532576  0.83076050  0.67982632     0.11300
S1255       S  0.29809252  0.84001449  0.75887810    -0.27700
H1256       H  0.30872831  0.87999281  0.73876806     0.08500
H1257       H  0.36695749  0.95152760  0.70857732     0.26900
H1258       H  0.29003292  0.85211473  0.65057502     0.21700
H1259       H  0.27957544  0.82680390  0.75768958     0.27100
H1260       H  0.26574202  0.89725038  0.70572428     0.15900
C1261       C  0.22274154  0.21133197  0.60620620    -0.11400
C1262       C  0.21946997  0.18937686  0.60139944     0.15200
C1263       C  0.22226271  0.17376461  0.61786610     0.02100
C1264       C  0.22818058  0.18044312  0.63869736    -0.15700
C1265       C  0.23090960  0.20249341  0.64374891    -0.10600
C1266       C  0.22852165  0.21805429  0.62705950     0.08800
C1267       C  0.21305932  0.18330331  0.57910833     0.09800
S1268       S  0.21793485  0.14517318  0.61353592    -0.24900
H1269       H  0.22989875  0.16832081  0.65127222     0.20100
S1270       S  0.23336717  0.24659642  0.63097102    -0.30600
H1271       H  0.22089916  0.22332353  0.59352078     0.10400
C1272       C  0.19207567  0.18778529  0.57133948     0.03600
C1273       C  0.18626734  0.18102891  0.55047790    -0.12900
C1274       C  0.20098077  0.16984084  0.53719437    -0.08600
C1275       C  0.22205608  0.16546392  0.54495840     0.07000
C1276       C  0.22793280  0.17243824  0.56573458    -0.13600
S1277       S  0.17240271  0.20133396  0.58831634    -0.30600
H1278       H  0.17007977  0.18417925  0.54450927     0.11300
S1279       S  0.24184808  0.15040891  0.52955723    -0.27700
H1280       H  0.24403820  0.16891843  0.57175272     0.08500
H1281       H  0.25129488  0.24364449  0.64470807     0.26900
H1282       H  0.15515482  0.20081305  0.57346980     0.21700
H1283       H  0.22697583  0.13679769  0.51900003     0.27100
H1284       H  0.20160301  0.14743209  0.59786390     0.15900
C1285       C  0.08588107  0.27129292  0.69435200    -0.11400
C1286       C  0.10062747  0.28740152  0.70064248     0.15200
C1287       C  0.09386277  0.30925550  0.70115724     0.02100
C1288       C  0.07262842  0.31448882  0.69535893    -0.15700
C1289       C  0.05796781  0.29850984  0.68852208    -0.10600
C1290       C  0.06470493  0.27661177  0.68808461     0.08800
C1291       C  0.12302367  0.28104231  0.70630501     0.09800
S1292       S  0.11148487  0.33127881  0.70885604    -0.24900
H1293       H  0.06761286  0.33133126  0.69562590     0.20100
S1294       S  0.04746854  0.25487902  0.67895655    -0.30600
H1295       H  0.09107008  0.25451310  0.69389542     0.10400
C1296       C  0.12990586  0.27996608  0.72797811     0.03600
C1297       C  0.15161730  0.27504782  0.73254839    -0.12900
C1298       C  0.16673165  0.27122232  0.71586293    -0.08600
C1299       C  0.15967793  0.27264707  0.69406030     0.07000
C1300       C  0.13789337  0.27711819  0.68959160    -0.13600
S1301       S  0.11093011  0.28465269  0.74978849    -0.30600
H1302       H  0.15678814  0.27396850  0.74925118     0.11300
S1303       S  0.17770853  0.27032535  0.67117242    -0.27700
H1304       H  0.13262509  0.27836432  0.67290331     0.08500
H1305       H  0.03636672  0.26700708  0.66322029     0.26900
H1306       H  0.12568183  0.28170848  0.76687087     0.21700
H1307       H  0.19428046  0.28277952  0.68062746     0.27100
H1308       H  0.13097690  0.32183506  0.70182256     0.15900
C1309       C  0.32297471  0.10052282  0.70195602    -0.11400
C1310       C  0.30636515  0.08534190  0.69919241     0.15200
C1311       C  0.28456376  0.09217782  0.70041781     0.02100
C1312       C  0.27992722  0.11407399  0.70425439    -0.15700
C1313       C  0.29657764  0.12936859  0.70709935    -0.10600
C1314       C  0.31838563  0.12241851  0.70546082     0.08800
C1315       C  0.31262117  0.06288274  0.69368245     0.09800
S1316       S  0.26198311  0.07390661  0.69714467    -0.24900
H1317       H  0.26314297  0.11912239  0.70540772     0.20100
S1318       S  0.34111481  0.14072807  0.70610508    -0.30600
H1319       H  0.33971296  0.09536343  0.70054243     0.10400
C1320       C  0.31168974  0.05530107  0.67218721     0.03600
C1321       C  0.31943511  0.03449645  0.66733523    -0.12900
C1322       C  0.32843050  0.02125365  0.68347723    -0.08600
C1323       C  0.32958345  0.02903195  0.70497920     0.07000
C1324       C  0.32143050  0.04963885  0.70987796    -0.13600
S1325       S  0.30155865  0.07248938  0.65079450    -0.30600
H1326       H  0.31880421  0.02856558  0.65084185     0.11300
S1327       S  0.34226888  0.01404339  0.72659824    -0.27700
H1328       H  0.32257245  0.05570431  0.72631128     0.08500
H1329       H  0.33086673  0.15693479  0.69378199     0.26900
H1330       H  0.30446891  0.05759273  0.63378412     0.21700
H1331       H  0.35801382  0.00383961  0.71363467     0.27100
H1332       H  0.27282309  0.05491309  0.70346629     0.15900
C1333       C  0.44232736  0.39585377  0.98300975    -0.11400
C1334       C  0.42739355  0.39457358  0.00008522     0.15200
C1335       C  0.42873024  0.40936039  0.01745187     0.02100
C1336       C  0.44512909  0.42493664  0.01750898    -0.15700
C1337       C  0.45996261  0.42636611  0.00035487    -0.10600
C1338       C  0.45842453  0.41176725  0.98279298     0.08800
C1339       C  0.41106058  0.37718102  0.99955665     0.09800
S1340       S  0.41030008  0.40893048  0.04011542    -0.24900
H1341       H  0.44629920  0.43615179  0.03097256     0.20100
S1342       S  0.47646205  0.41250561  0.95977435    -0.30600
H1343       H  0.44129940  0.38445520  0.96968889     0.10400
C1344       C  0.39117711  0.37995740  0.98879412     0.03600
C1345       C  0.37638455  0.36273348  0.98811677    -0.12900
C1346       C  0.38134114  0.34262547  0.99758550    -0.08600
C1347       C  0.40167165  0.33981592  0.00780173     0.07000
C1348       C  0.41607964  0.35722348  0.00903436    -0.13600
S1349       S  0.38466249  0.40552674  0.97615368    -0.30600
H1350       H  0.36085124  0.36492050  0.98029508     0.11300
S1351       S  0.41082801  0.31421235  0.01841556    -0.27700
H1352       H  0.43163211  0.35502622  0.01686429     0.08500
H1353       H  0.48082156  0.43483820  0.96055342     0.26900
H1354       H  0.36480744  0.39900148  0.96712044     0.21700
H1355       H  0.40032808  0.30146627  0.00273784     0.27100
H1356       H  0.39201541  0.40240360  0.02829373     0.15900
C1357       C  0.30531311  0.28425107  0.92827455    -0.11400
C1358       C  0.32100967  0.27826842  0.91293821     0.15200
C1359       C  0.34315581  0.28013839  0.91823402     0.02100
C1360       C  0.34913623  0.28794112  0.93861888    -0.15700
C1361       C  0.33352017  0.29395501  0.95407597    -0.10600
C1362       C  0.31130995  0.29235362  0.94863406     0.08800
C1363       C  0.31408885  0.27200954  0.89086987     0.09800
S1364       S  0.36456875  0.27326540  0.89951258    -0.24900
H1365       H  0.36620069  0.28913857  0.94254690     0.20100
S1366       S  0.28995050  0.30160932  0.96632666    -0.30600
H1367       H  0.28830378  0.28331090  0.92405842     0.10400
C1368       C  0.30812145  0.25058188  0.88574662     0.03600
C1369       C  0.30391413  0.24501861  0.86409123    -0.12900
C1370       C  0.30533523  0.26054442  0.84750054    -0.08600
C1371       C  0.31101513  0.28211470  0.85286384     0.07000
C1372       C  0.31513383  0.28759490  0.87443534    -0.13600
S1373       S  0.30648479  0.23026591  0.90670530    -0.30600
H1374       H  0.29938682  0.22855912  0.86005013     0.11300
S1375       S  0.31459079  0.30313571  0.83290272    -0.27700
H1376       H  0.31994026  0.30401880  0.87838434     0.08500
H1377       H  0.30186596  0.31871456  0.97550406     0.26900
H1378       H  0.30097067  0.21282665  0.89311313     0.21700
H1379       H  0.32448546  0.28958920  0.81743851     0.27100
H1380       H  0.35342838  0.25651917  0.88888440     0.15900
C1381       C  0.99898310  0.56553551  0.42353490    -0.11400
C1382       C  0.01763720  0.57042673  0.41151630     0.15200
C1383       C  0.03705422  0.55906797  0.41570840     0.02100
C1384       C  0.03736442  0.54308274  0.43175838    -0.15700
C1385       C  0.01862946  0.53800156  0.44357270    -0.10600
C1386       C  0.99920466  0.54938091  0.43940997     0.08800
C1387       C  0.01644832  0.58793793  0.39523677     0.09800
S1388       S  0.06190110  0.56419862  0.40119032    -0.24900
H1389       H  0.05227573  0.53438227  0.43497849     0.20100
S1390       S  0.97427099  0.54441938  0.45390823    -0.30600
H1391       H  0.98412082  0.57437911  0.42046662     0.10400
C1392       C  0.00571582  0.58492862  0.37534292     0.03600
C1393       C  0.00490941  0.60203228  0.36041169    -0.12900
C1394       C  0.01466636  0.62207134  0.36498228    -0.08600
C1395       C  0.02504057  0.62511849  0.38516970     0.07000
C1396       C  0.02598604  0.60797814  0.39994262    -0.13600
S1397       S  0.99383405  0.55903730  0.36865609    -0.30600
H1398       H  0.99713966  0.59967032  0.34488043     0.11300
S1399       S  0.03693826  0.65054684  0.39329690    -0.27700
H1400       H  0.03401427  0.61032524  0.41536104     0.08500
H1401       H  0.97855242  0.52296526  0.46012887     0.26900
H1402       H  0.98654309  0.56473060  0.34785275     0.21700
H1403       H  0.02263331  0.66378153  0.38151265     0.27100
H1404       H  0.05217141  0.57037332  0.38157864     0.15900
C1405       C  0.70973863  0.68883208  0.11953048    -0.11400
C1406       C  0.72609791  0.68662766  0.10393544     0.15200
C1407       C  0.74795967  0.68898517  0.11020081     0.02100
C1408       C  0.75294554  0.69307264  0.13195885    -0.15700
C1409       C  0.73657675  0.69513175  0.14770994    -0.10600
C1410       C  0.71468622  0.69266927  0.14129266     0.08800
C1411       C  0.71970558  0.68020667  0.08174122     0.09800
S1412       S  0.77019599  0.68674583  0.09131430    -0.24900
H1413       H  0.76977217  0.69494310  0.13656738     0.20100
S1414       S  0.69236886  0.69257645  0.16016646    -0.30600
H1415       H  0.69297002  0.68661208  0.11483707     0.10400
C1416       C  0.72248626  0.65874693  0.07440709     0.03600
C1417       C  0.71490865  0.65291669  0.05384603    -0.12900
C1418       C  0.70418390  0.66795576  0.04059788    -0.08600
C1419       C  0.70113588  0.68938694  0.04810295     0.07000
C1420       C  0.70916108  0.69533898  0.06846356    -0.13600
S1421       S  0.73479805  0.63851685  0.09159278    -0.30600
H1422       H  0.71700481  0.63645118  0.04812199     0.11300
S1423       S  0.68615426  0.70946577  0.03308209    -0.27700
H1424       H  0.70660535  0.71171114  0.07430499     0.08500
H1425       H  0.70341002  0.68055985  0.17606709     0.26900
H1426       H  0.73148118  0.62073308  0.07773014     0.21700
H1427       H  0.67116247  0.69489712  0.02405850     0.27100
H1428       H  0.75859042  0.69304830  0.07279841     0.15900
C1429       C  0.89822779  0.70019906  0.31204921    -0.11400
C1430       C  0.91063958  0.69091837  0.29537411     0.15200
C1431       C  0.90068153  0.68684550  0.27515650     0.02100
C1432       C  0.87873765  0.69188749  0.27221970    -0.15700
C1433       C  0.86641568  0.70148392  0.28880349    -0.10600
C1434       C  0.87637866  0.70549855  0.30903425     0.08800
C1435       C  0.93325505  0.68403623  0.30026047     0.09800
S1436       S  0.91512012  0.67572796  0.25228186    -0.24900
H1437       H  0.87138162  0.68886633  0.25658233     0.20100
S1438       S  0.86193384  0.71624538  0.33204328    -0.30600
H1439       H  0.90550792  0.70282524  0.32779126     0.10400
C1440       C  0.94926917  0.69891679  0.30702499     0.03600
C1441       C  0.96987041  0.69129132  0.31309362    -0.12900
C1442       C  0.97491550  0.66909234  0.31242065    -0.08600
C1443       C  0.95913456  0.65438817  0.30463740     0.07000
C1444       C  0.93850442  0.66194496  0.29904662    -0.13600
S1445       S  0.94354796  0.72762555  0.30794559    -0.30600
H1446       H  0.98189745  0.70256280  0.31906172     0.11300
S1447       S  0.96427126  0.62578697  0.30128011    -0.27700
H1448       H  0.92634293  0.65043935  0.29378818     0.08500
H1449       H  0.84271449  0.70476459  0.32783337     0.26900
H1450       H  0.96456348  0.73438005  0.31355000     0.21700
H1451       H  0.98657951  0.62787356  0.29712429     0.27100
H1452       H  0.93545865  0.68430259  0.25784696     0.15900
C1453       C  0.61514417  0.97167608  0.37199490    -0.11400
C1454       C  0.61928124  0.98325768  0.39107697     0.15200
C1455       C  0.63851726  0.99545165  0.39282639     0.02100
C1456       C  0.65308556  0.99594270  0.37545320    -0.15700
C1457       C  0.64915163  0.98415000  0.35639571    -0.10600
C1458       C  0.62972638  0.97211151  0.35459996     0.08800
C1459       C  0.60295590  0.98269486  0.40863357     0.09800
S1460       S  0.64543348  0.01057059  0.41682387    -0.24900
H1461       H  0.66798060  0.00508291  0.37708126     0.20100
S1462       S  0.62224020  0.95751142  0.33043237    -0.30600
H1463       H  0.60025816  0.96249071  0.37053987     0.10400
C1464       C  0.58732098  0.99919159  0.41091106     0.03600
C1465       C  0.57200579  0.99787708  0.42768316    -0.12900
C1466       C  0.57184592  0.98020743  0.44201362    -0.08600
C1467       C  0.58735897  0.96353764  0.43943968     0.07000
C1468       C  0.60283288  0.96505812  0.42292123    -0.13600
S1469       S  0.58668892  0.02167316  0.39221420    -0.30600
H1470       H  0.56000052  0.01053674  0.42964260     0.11300
S1471       S  0.58811384  0.93986116  0.45653326    -0.27700
H1472       H  0.61476866  0.95229924  0.42103260     0.08500
H1473       H  0.63286802  0.97144676  0.31588163     0.26900
H1474       H  0.56892627  0.03247014  0.40161319     0.21700
H1475       H  0.56568867  0.93884623  0.46038730     0.27100
H1476       H  0.63610881  0.99599691  0.43161550     0.15900
C1477       C  0.70232840  0.86481259  0.28320793    -0.11400
C1478       C  0.71906492  0.87778929  0.29145927     0.15200
C1479       C  0.73974167  0.86851040  0.29471848     0.02100
C1480       C  0.74317222  0.84662768  0.28974797    -0.15700
C1481       C  0.72658348  0.83376905  0.28100492    -0.10600
C1482       C  0.70580079  0.84298496  0.27803095     0.08800
C1483       C  0.71402830  0.90049478  0.29770309     0.09800
S1484       S  0.76256212  0.88382581  0.30458508    -0.24900
H1485       H  0.75917069  0.83976060  0.29206519     0.20100
S1486       S  0.68279121  0.82759441  0.26870904    -0.30600
H1487       H  0.68628519  0.87167055  0.28118329     0.10400
C1488       C  0.70765422  0.91607477  0.28224612     0.03600
C1489       C  0.70153358  0.93690240  0.28913015    -0.12900
C1490       C  0.70197844  0.94259813  0.31113842    -0.08600
C1491       C  0.70971632  0.92735784  0.32639882     0.07000
C1492       C  0.71518860  0.90642097  0.31959878    -0.13600
S1493       S  0.70740626  0.90950382  0.25374430    -0.30600
H1494       H  0.69575423  0.94860772  0.27742613     0.11300
S1495       S  0.71333877  0.93370750  0.35468639    -0.27700
H1496       H  0.72043655  0.89462010  0.33148159     0.08500
H1497       H  0.68860691  0.80832246  0.27939609     0.26900
H1498       H  0.70322138  0.93061513  0.24623733     0.21700
H1499       H  0.71749658  0.95590339  0.35159631     0.27100
H1500       H  0.75619835  0.90375051  0.29556041     0.15900
C1501       C  0.64416199  0.17617277  0.20280414    -0.11400
C1502       C  0.62826500  0.19239692  0.20361893     0.15200
C1503       C  0.63435088  0.21386871  0.20853203     0.02100
C1504       C  0.65622516  0.21875623  0.21192861    -0.15700
C1505       C  0.67223510  0.20256900  0.21100546    -0.10600
C1506       C  0.66603813  0.18101556  0.20622990     0.08800
C1507       C  0.60592143  0.18667620  0.19716656     0.09800
S1508       S  0.61503306  0.23573505  0.21038028    -0.24900
H1509       H  0.66073555  0.23529640  0.21573078     0.20100
S1510       S  0.68527956  0.15923826  0.20291868    -0.30600
H1511       H  0.63956106  0.15973853  0.19865469     0.10400
C1512       C  0.59886825  0.18971577  0.17570654     0.03600
C1513       C  0.57833125  0.18226246  0.16956116    -0.12900
C1514       C  0.56461507  0.17194845  0.18448883    -0.08600
C1515       C  0.57150941  0.16946080  0.20617803     0.07000
C1516       C  0.59207672  0.17686497  0.21227033    -0.13600
S1517       S  0.61637527  0.20238029  0.15596135    -0.30600
H1518       H  0.57302950  0.18406953  0.15295297     0.11300
S1519       S  0.55527799  0.15628411  0.22660249    -0.27700
H1520       H  0.59755946  0.17450637  0.22876388     0.08500
H1521       H  0.70118943  0.17202808  0.19277517     0.26900
H1522       H  0.60128025  0.20282330  0.13892985     0.21700
H1523       H  0.54538874  0.14123652  0.21268258     0.27100
H1524       H  0.59746673  0.22299976  0.21726203     0.15900
C1525       C  0.71561231  0.27330980  0.06970875    -0.11400
C1526       C  0.72446917  0.28904363  0.08348699     0.15200
C1527       C  0.72578329  0.31074698  0.07635424     0.02100
C1528       C  0.71763573  0.31629299  0.05595229    -0.15700
C1529       C  0.70784663  0.30073302  0.04255707    -0.10600
C1530       C  0.70701008  0.27893153  0.04953323     0.08800
C1531       C  0.73120669  0.28243126  0.10552365     0.09800
S1532       S  0.73718516  0.33217771  0.09261477    -0.24900
H1533       H  0.71847136  0.33301900  0.05066061     0.20100
S1534       S  0.69416802  0.25772861  0.03412501    -0.30600
H1535       H  0.71463175  0.25663045  0.07511894     0.10400
C1536       C  0.71571286  0.27697648  0.12138620     0.03600
C1537       C  0.72258215  0.27109572  0.14220193    -0.12900
C1538       C  0.74470307  0.27038949  0.14759436    -0.08600
C1539       C  0.76021375  0.27514349  0.13128510     0.07000
C1540       C  0.75328294  0.28141306  0.11062030    -0.13600
S1541       S  0.68709391  0.27839057  0.11539457    -0.30600
H1542       H  0.71058669  0.26757048  0.15450684     0.11300
S1543       S  0.78901656  0.27260169  0.13532598    -0.27700
H1544       H  0.76519212  0.28520392  0.09827807     0.08500
H1545       H  0.67748921  0.27079650  0.02577390     0.26900
H1546       H  0.67973663  0.26954035  0.13505805     0.21700
H1547       H  0.78748442  0.25343269  0.14757293     0.27100
H1548       H  0.73089590  0.32375174  0.11280020     0.15900
C1549       C  0.72917008  0.05123166  0.30596680    -0.11400
C1550       C  0.71484099  0.06596119  0.29626449     0.15200
C1551       C  0.69330485  0.05952760  0.29214260     0.02100
C1552       C  0.68646686  0.03874619  0.29811158    -0.15700
C1553       C  0.70054780  0.02418764  0.30847251    -0.10600
C1554       C  0.72222481  0.03055731  0.31233867     0.08800
C1555       C  0.72260573  0.08804059  0.29089073     0.09800
S1556       S  0.67375421  0.07715440  0.27947825    -0.24900
H1557       H  0.66984197  0.03402129  0.29505720     0.20100
S1558       S  0.74152000  0.01355029  0.32618593    -0.30600
H1559       H  0.74572216  0.05612130  0.30914232     0.10400
C1560       C  0.72330946  0.10453620  0.30667527     0.03600
C1561       C  0.72954178  0.12559658  0.30066405    -0.12900
C1562       C  0.73505375  0.13053552  0.27912225    -0.08600
C1563       C  0.73512775  0.11364845  0.26355934     0.16600
C1564       C  0.72865973  0.09273828  0.26954645    -0.13600
S1565       S  0.71527351  0.09892421  0.33424563    -0.30600
H1566       H  0.72948166  0.13841848  0.31263934     0.11300
S1567       S  0.74399926  0.11748357  0.23599869    -0.27700
H1568       H  0.72841102  0.07997266  0.25748704     0.08500
H1569       H  0.72652561  0.00436686  0.34067656     0.26900
H1570       H  0.71877516  0.11991692  0.34240307     0.21700
H1571       H  0.76065620  0.13212360  0.24123687     0.27100
H1572       H  0.68123493  0.09644776  0.28895620     0.15900
C1573       C  0.24443846  0.59396856  0.20812319    -0.11400
C1574       C  0.22349420  0.58534064  0.20997237     0.15200
C1575       C  0.20715611  0.59786217  0.22012117     0.02100
C1576       C  0.21204078  0.61861424  0.22790577    -0.15700
C1577       C  0.23273745  0.62760607  0.22519642    -0.10600
C1578       C  0.24923053  0.61485863  0.21556211     0.08800
C1579       C  0.21920387  0.56321610  0.20143384     0.09800
S1580       S  0.17952279  0.58875121  0.22278737    -0.24900
H1581       H  0.19926065  0.62823357  0.23519710     0.20100
S1582       S  0.27684857  0.62398496  0.21284005    -0.30600
H1583       H  0.25718099  0.58430174  0.20082925     0.10400
C1584       C  0.22073727  0.55850903  0.17910922     0.03600
C1585       C  0.21510223  0.53779190  0.17161374    -0.12900
C1586       C  0.20791739  0.52158666  0.18588996    -0.08600
C1587       C  0.20678844  0.52625178  0.20829202     0.07000
C1588       C  0.21275794  0.54682261  0.21580846    -0.13600
S1589       S  0.22884226  0.57910734  0.15994587    -0.30600
H1590       H  0.21594655  0.53423179  0.15446155     0.11300
S1591       S  0.19672214  0.50720669  0.22798672    -0.27700
H1592       H  0.21164278  0.55034912  0.23296858     0.08500
H1593       H  0.27704826  0.63593449  0.23224422     0.26900
H1594       H  0.22938575  0.56565951  0.14155153     0.21700
H1595       H  0.18093090  0.49806924  0.21438178     0.27100
H1596       H  0.17906146  0.57697697  0.20329199     0.15900
C1597       C  0.29951339  0.67466322  0.06909921    -0.11400
C1598       C  0.31498288  0.68062493  0.08464128     0.15200
C1599       C  0.33718010  0.68020323  0.07898564     0.02100
C1600       C  0.34326642  0.67458668  0.05788815    -0.15700
C1601       C  0.32784855  0.66822354  0.04241717    -0.10600
C1602       C  0.30570625  0.66802095  0.04828382     0.08800
C1603       C  0.30757922  0.68556291  0.10698350     0.09800
S1604       S  0.35862026  0.68558175  0.09809546    -0.24900
H1605       H  0.36032660  0.67443803  0.05369262     0.20100
S1606       S  0.28476897  0.65801568  0.03060363    -0.30600
H1607       H  0.28251194  0.67440996  0.07350530     0.10400
C1608       C  0.31025337  0.70620013  0.11643420     0.03600
C1609       C  0.30443246  0.70937765  0.13819954    -0.12900
C1610       C  0.29564507  0.69245701  0.15067067    -0.08600
C1611       C  0.29260252  0.67191739  0.14093998     0.07000
C1612       C  0.29839223  0.66879781  0.11924769    -0.13600
S1613       S  0.32049618  0.72862542  0.10066750    -0.30600
H1614       H  0.30643743  0.72521520  0.14548523     0.11300
S1615       S  0.28265738  0.64867485  0.15554157    -0.27700
H1616       H  0.29642262  0.65289786  0.11204372     0.08500
H1617       H  0.29739101  0.64134757  0.02147830     0.26900
H1618       H  0.32138300  0.74373353  0.11771284     0.21700
H1619       H  0.29415244  0.65334488  0.17462907     0.27100
H1620       H  0.34781424  0.67738575  0.11638514     0.15900
C1621       C  0.08426611  0.69853421  0.31148118    -0.11400
C1622       C  0.09990748  0.68291363  0.30598805     0.15200
C1623       C  0.09397148  0.66081832  0.30578155     0.02100
C1624       C  0.07259220  0.65491889  0.31038508    -0.15700
C1625       C  0.05695741  0.67041380  0.31632612    -0.10600
C1626       C  0.06301565  0.69252616  0.31698751     0.08800
C1627       C  0.12236267  0.68993863  0.30088984     0.09800
S1628       S  0.11308379  0.63927994  0.30056782    -0.24900
H1629       H  0.06827169  0.63789846  0.31007728     0.20100
S1630       S  0.04486841  0.71367912  0.32581918    -0.30600
H1631       H  0.08880361  0.71548912  0.31197938     0.10400
C1632       C  0.13107671  0.68784807  0.27986801     0.03600
C1633       C  0.15296343  0.69283941  0.27619324    -0.12900
C1634       C  0.16625088  0.70048620  0.29296582    -0.08600
C1635       C  0.15732046  0.70302590  0.31395451     0.07000
C1636       C  0.13551001  0.69784961  0.31762985    -0.13600
S1637       S  0.11413188  0.67946180  0.25757403    -0.30600
H1638       H  0.15967096  0.69126348  0.26005659     0.11300
S1639       S  0.17304734  0.71186439  0.33691034    -0.27700
H1640       H  0.12888112  0.69939341  0.33382139     0.08500
H1641       H  0.03466419  0.70127697  0.34197795     0.26900
H1642       H  0.12992491  0.68148509  0.24125733     0.21700
H1643       H  0.19232480  0.70151747  0.33045841     0.27100
H1644       H  0.13095690  0.64956214  0.31019678     0.15900
C1645       C  0.43903426  0.99778849  0.41748279    -0.11400
C1646       C  0.42751722  0.97870161  0.41311284     0.15200
C1647       C  0.43177470  0.95988653  0.42538832     0.02100
C1648       C  0.44766538  0.96047868  0.44150032    -0.15700
C1649       C  0.45930097  0.97951309  0.44573416    -0.10600
C1650       C  0.45477988  0.99843972  0.43372220     0.08800
C1651       C  0.41192395  0.97874893  0.39499029     0.09800
S1652       S  0.41783094  0.93459564  0.42099687    -0.24900
H1653       H  0.45117935  0.94593338  0.45068135     0.20100
S1654       S  0.46900410  0.02362813  0.43782699    -0.30600
H1655       H  0.43585108  0.01222204  0.40800649     0.10400
C1656       C  0.39167630  0.98911181  0.39684535     0.03600
C1657       C  0.37771179  0.98945931  0.37899509    -0.12900
C1658       C  0.38357491  0.97964865  0.35930503    -0.08600
C1659       C  0.40391995  0.96926352  0.35751249     0.07000
C1660       C  0.41777733  0.96877939  0.37542507    -0.13600
S1661       S  0.38340940  0.00137106  0.42211447    -0.30600
H1662       H  0.36201125  0.99719186  0.38039030     0.11300
S1663       S  0.41344412  0.95700112  0.33274779    -0.27700
H1664       H  0.43344123  0.96094769  0.37400589     0.08500
H1665       H  0.47315786  0.02072891  0.45998929     0.26900
H1666       H  0.36260847  0.00778364  0.41538043     0.21700
H1667       H  0.40253624  0.97124459  0.31873030     0.27100
H1668       H  0.39826432  0.94371084  0.41376431     0.15900
C1669       C  0.29210201  0.86980078  0.29115183    -0.11400
C1670       C  0.31328476  0.87756970  0.28842684     0.15200
C1671       C  0.32939276  0.86351957  0.28016625     0.02100
C1672       C  0.32388020  0.84230969  0.27437471    -0.15700
C1673       C  0.30278462  0.83436533  0.27744004    -0.10600
C1674       C  0.28664620  0.84846776  0.28564209     0.08800
C1675       C  0.31836152  0.89998876  0.29537400     0.09800
S1676       S  0.35743891  0.87132173  0.27748582    -0.24900
H1677       H  0.33642290  0.83161909  0.26825458     0.20100
S1678       S  0.25871704  0.84051031  0.28879606    -0.30600
H1679       H  0.27969490  0.88051024  0.29750692     0.10400
C1680       C  0.32424003  0.91632154  0.28051079     0.03600
C1681       C  0.33112372  0.93657988  0.28829044    -0.12900
C1682       C  0.33191196  0.94090863  0.31061984    -0.08600
C1683       C  0.32437088  0.92499291  0.32530907     0.07000
C1684       C  0.31800949  0.90469883  0.31755530    -0.13600
S1685       S  0.32300638  0.91134693  0.25171533    -0.30600
H1686       H  0.33650132  0.94888658  0.27701486     0.11300
S1687       S  0.32215425  0.92957184  0.35409160    -0.27700
H1688       H  0.31297601  0.89233051  0.32895509     0.08500
H1689       H  0.25815705  0.82751323  0.27007826     0.26900
H1690       H  0.33066184  0.93177787  0.24513901     0.21700
H1691       H  0.31805111  0.95194715  0.35257190     0.27100
H1692       H  0.35784858  0.88519731  0.29554179     0.15900
C1693       C  0.24265151  0.18788952  0.38437106    -0.11400
C1694       C  0.22121724  0.19063190  0.39147574     0.15200
C1695       C  0.20598898  0.20027060  0.37736675     0.02100
C1696       C  0.21249986  0.20688740  0.35664925    -0.15700
C1697       C  0.23381091  0.20358969  0.34928002    -0.10600
C1698       C  0.24911080  0.19427117  0.36357279     0.08800
C1699       C  0.21529154  0.18348893  0.41369795     0.09800
S1700       S  0.17785932  0.20389825  0.38450784    -0.24900
H1701       H  0.20057483  0.21394134  0.34588251     0.20100
S1702       S  0.27729706  0.19090133  0.35665548    -0.30600
H1703       H  0.25451023  0.18086665  0.39523135     0.10400
C1704       C  0.21558466  0.16138540  0.41950137     0.03600
C1705       C  0.20901441  0.15521077  0.44033739    -0.12900
C1706       C  0.20164783  0.17054150  0.45548112    -0.08600
C1707       C  0.20136790  0.19271512  0.44963779     0.07000
C1708       C  0.20857321  0.19894594  0.42901491    -0.13600
S1709       S  0.22330205  0.14083634  0.40009989    -0.30600
H1710       H  0.20924037  0.13824523  0.44480760     0.11300
S1711       S  0.19090160  0.21368868  0.46712909    -0.27700
H1712       H  0.20822861  0.21593186  0.42457292     0.08500
H1713       H  0.27883541  0.21040893  0.34496562     0.26900
H1714       H  0.21768545  0.12279400  0.41283305     0.21700
H1715       H  0.17452227  0.20094623  0.47652703     0.27100
H1716       H  0.17623219  0.18521446  0.39743032     0.15900
C1717       C  0.40734238  0.17025667  0.21636222    -0.11400
C1718       C  0.41970436  0.18681858  0.20692961     0.15200
C1719       C  0.41009970  0.20732261  0.20348650     0.02100
C1720       C  0.38841814  0.21070039  0.20936015    -0.15700
C1721       C  0.37601797  0.19413494  0.21885082    -0.10600
C1722       C  0.38563812  0.17357197  0.22209010     0.08800
C1723       C  0.44189546  0.18155058  0.19927913     0.09800
S1724       S  0.42458035  0.22982424  0.19172690    -0.24900
H1725       H  0.38124102  0.22652475  0.20676336     0.20100
S1726       S  0.37078547  0.15043178  0.23189180    -0.30600
H1727       H  0.41446695  0.15434339  0.21854092     0.10400
C1728       C  0.45884297  0.17696947  0.21385384     0.03600
C1729       C  0.47924182  0.17083853  0.20579304    -0.12900
C1730       C  0.48313686  0.16931142  0.18340662    -0.08600
C1731       C  0.46624998  0.17474131  0.16886032     0.07000
C1732       C  0.44582990  0.18043477  0.17694958    -0.13600
S1733       S  0.45453834  0.17913264  0.24270866    -0.30600
H1734       H  0.49211723  0.16677102  0.21696346     0.11300
S1735       S  0.46972979  0.17535456  0.13985237    -0.27700
H1736       H  0.43286218  0.18413544  0.16572712     0.08500
H1737       H  0.35130430  0.15570984  0.22134185     0.26900
H1738       H  0.47571642  0.17354700  0.24898098     0.21700
H1739       H  0.49162945  0.18160334  0.14030961     0.27100
H1740       H  0.44532475  0.22345557  0.19860576     0.15900
C1741       C  0.21658898  0.35988402  0.19855311    -0.11400
C1742       C  0.23316205  0.37535886  0.19721255     0.15200
C1743       C  0.25484478  0.36876324  0.20023780     0.02100
C1744       C  0.25947517  0.34688678  0.20417421    -0.15700
C1745       C  0.24291096  0.33129936  0.20561957    -0.10600
C1746       C  0.22119621  0.33798173  0.20239702     0.08800
C1747       C  0.22725885  0.39795827  0.19154236     0.09800
S1748       S  0.27729243  0.38744372  0.19935126    -0.24900
H1749       H  0.27618572  0.34209266  0.20663393     0.20100
S1750       S  0.19877070  0.31931215  0.20157460    -0.30600
H1751       H  0.19995017  0.36482712  0.19588157     0.10400
C1752       C  0.23055944  0.40616146  0.17049157     0.03600
C1753       C  0.22339734  0.42714857  0.16542167    -0.12900
C1754       C  0.21274091  0.44004032  0.18088042    -0.08600
C1755       C  0.20949565  0.43175984  0.20197819     0.07000
C1756       C  0.21698321  0.41095077  0.20712485    -0.13600
S1757       S  0.24293299  0.38952388  0.14979970    -0.30600
H1758       H  0.22561916  0.43342785  0.14920071     0.11300
S1759       S  0.19485786  0.44635086  0.22264726    -0.27700
H1760       H  0.21419762  0.40454863  0.22322739     0.08500
H1761       H  0.21024136  0.30296131  0.19053336     0.26900
H1762       H  0.24174390  0.40482611  0.13297006     0.21700
H1763       H  0.17967443  0.45578133  0.20855016     0.27100
H1764       H  0.26571688  0.40568832  0.20660570     0.15900
C1765       C  0.31296290  0.28393257  0.11416971    -0.11400
C1766       C  0.31924676  0.26733304  0.09997568     0.15200
C1767       C  0.32164133  0.24608271  0.10813211     0.02100
C1768       C  0.31773850  0.24198414  0.13012189    -0.15700
C1769       C  0.31093573  0.25849950  0.14436755    -0.10600
C1770       C  0.30850211  0.27980017  0.13600267     0.08800
C1771       C  0.32435646  0.27309276  0.07714903     0.09800
S1772       S  0.32933694  0.22341937  0.09131461    -0.24900
H1773       H  0.31964144  0.22555955  0.13601826     0.20100
S1774       S  0.30072499  0.30274991  0.15229599    -0.30600
H1775       H  0.31156721  0.30037351  0.10814791     0.10400
C1776       C  0.30862393  0.28215300  0.06322228     0.03600
C1777       C  0.31475628  0.28924879  0.04247319    -0.12900
C1778       C  0.33621445  0.28712716  0.03524872    -0.08600
C1779       C  0.35150694  0.27663121  0.04864178     0.07000
C1780       C  0.34559172  0.27025117  0.06954920    -0.13600
S1781       S  0.28073717  0.28461184  0.07181430    -0.30600
H1782       H  0.30300894  0.29707504  0.03207587     0.11300
S1783       S  0.37873003  0.27065016  0.03988341    -0.27700
H1784       H  0.35767499  0.26303991  0.08002857     0.08500
H1785       H  0.27935874  0.29519810  0.15486528     0.26900
H1786       H  0.27270560  0.29340583  0.05241007     0.21700
H1787       H  0.37377326  0.26893022  0.01772836     0.27100
H1788       H  0.31963591  0.23119836  0.07225464     0.15900
C1789       C  0.33142090  0.10196102  0.29074763    -0.11400
C1790       C  0.31492772  0.08685928  0.29460637     0.15200
C1791       C  0.29319724  0.09394030  0.29518573     0.02100
C1792       C  0.28843331  0.11585423  0.29177629    -0.15700
C1793       C  0.30488295  0.13110450  0.28774751    -0.10600
C1794       C  0.32673342  0.12396066  0.28773966     0.08800
C1795       C  0.32108039  0.06434032  0.30014442     0.09800
S1796       S  0.27082595  0.07582740  0.30022154    -0.24900
H1797       H  0.27162435  0.12093322  0.29190353     0.20100
S1798       S  0.34950246  0.14210126  0.28568961    -0.30600
H1799       H  0.34817319  0.09667300  0.29096036     0.10400
C1800       C  0.32897715  0.04972158  0.28443884     0.03600
C1801       C  0.33532154  0.02878703  0.29077899    -0.12900
C1802       C  0.33389451  0.02226318  0.31251554    -0.08600
C1803       C  0.32525723  0.03677439  0.32803769     0.07000
C1804       C  0.31922570  0.05766130  0.32173538    -0.13600
S1805       S  0.33083919  0.05772055  0.25637982    -0.30600
H1806       H  0.34190550  0.01762896  0.27892943     0.11300
S1807       S  0.32129125  0.02958944  0.35609001    -0.27700
H1808       H  0.31296181  0.06884052  0.33376432     0.08500
H1809       H  0.34025534  0.15819442  0.29896764     0.26900
H1810       H  0.33844308  0.03774585  0.24840915     0.21700
H1811       H  0.31738194  0.00745218  0.35234331     0.27100
H1812       H  0.28056255  0.05724877  0.29129327     0.15900
C1813       C  0.00683094  0.39454663  0.42337726    -0.11400
C1814       C  0.02482924  0.39298603  0.40959041     0.15200
C1815       C  0.04226828  0.40758229  0.41211502     0.02100
C1816       C  0.04136302  0.42326503  0.42845740    -0.15700
C1817       C  0.02321366  0.42502291  0.44204036    -0.10600
C1818       C  0.00575031  0.41047617  0.43945265     0.08800
C1819       C  0.02452748  0.37643181  0.39231167     0.09800
S1820       S  0.06605267  0.40712026  0.39508176    -0.24900
H1821       H  0.05479342  0.43438118  0.43047576     0.20100
S1822       S  0.98170955  0.41134747  0.45611232    -0.30600
H1823       H  0.99341319  0.38340320  0.42140991     0.10400
C1824       C  0.03707758  0.35740631  0.39360645     0.03600
C1825       C  0.03646759  0.34245502  0.37650109    -0.12900
C1826       C  0.02363770  0.34622857  0.35809429    -0.08600
C1827       C  0.01129948  0.36549124  0.35680374     0.07000
C1828       C  0.01158613  0.38014878  0.37406833    -0.13600
S1829       S  0.05353793  0.35203855  0.41715891    -0.30600
H1830       H  0.04584067  0.32764533  0.37749800     0.11300
S1831       S  0.99566614  0.37281169  0.33326758    -0.27700
H1832       H  0.00212264  0.39491845  0.37303057     0.08500
H1833       H  0.98210141  0.43372637  0.46031262     0.26900
H1834       H  0.06257166  0.33245800  0.40971692     0.21700
H1835       H  0.00960156  0.36300768  0.31810721     0.27100
H1836       H  0.05594989  0.39889622  0.37644688     0.15900
C1837       C  0.95026777  0.27383958  0.32142793    -0.11400
C1838       C  0.94098720  0.27929401  0.30140413     0.15200
C1839       C  0.95335547  0.29141289  0.28637151     0.02100
C1840       C  0.97414777  0.29853897  0.29203406    -0.15700
C1841       C  0.98317186  0.29340669  0.31221299    -0.10600
C1842       C  0.97130749  0.28036136  0.32677602     0.08800
C1843       C  0.91802663  0.27324716  0.29722933     0.09800
S1844       S  0.94348290  0.29844145  0.25981713    -0.24900
H1845       H  0.98322465  0.30849247  0.28076978     0.20100
S1846       S  0.98210692  0.27166151  0.35246597    -0.30600
H1847       H  0.94096834  0.26454470  0.33306182     0.10400
C1848       C  0.91121535  0.25143573  0.29658018     0.03600
C1849       C  0.88927265  0.24662518  0.29291551    -0.12900
C1850       C  0.87386130  0.26312718  0.28968763    -0.08600
C1851       C  0.88076331  0.28501254  0.29081897     0.07000
C1852       C  0.90264552  0.28975309  0.29442668    -0.13600
S1853       S  0.93060372  0.22964939  0.29930890    -0.30600
H1854       H  0.88419514  0.22986641  0.29196827     0.11300
S1855       S  0.86249812  0.30773243  0.28875827    -0.27700
H1856       H  0.90771795  0.30653877  0.29538409     0.08500
H1857       H  0.00393663  0.27134267  0.34592010     0.26900
H1858       H  0.91560831  0.21251485  0.29865505     0.21700
H1859       H  0.84597539  0.29805884  0.30113613     0.27100
H1860       H  0.93050420  0.27991339  0.25717707     0.15900
C1861       C  0.14078980  0.29497466  0.27571377    -0.11400
C1862       C  0.12756878  0.27900725  0.28495546     0.15200
C1863       C  0.13597812  0.25795386  0.28816376     0.02100
C1864       C  0.15766535  0.25364458  0.28304543    -0.15700
C1865       C  0.17105404  0.26971817  0.27411196    -0.10600
C1866       C  0.16240953  0.29065318  0.27042513     0.08800
C1867       C  0.10576124  0.28538747  0.29269396     0.09800
S1868       S  0.11988348  0.23595321  0.29870946    -0.24900
H1869       H  0.16402861  0.23748118  0.28566908     0.20100
S1870       S  0.17837608  0.31294932  0.26033201    -0.30600
H1871       H  0.13444334  0.31119672  0.27341043     0.10400
C1872       C  0.10133578  0.28748793  0.31497743     0.03600
C1873       C  0.08065890  0.29398815  0.32170378    -0.12900
C1874       C  0.06439566  0.29922942  0.30666174    -0.08600
C1875       C  0.06911404  0.29767849  0.28426994     0.07000
C1876       C  0.08961316  0.29049243  0.27757131    -0.13600
S1877       S  0.12228493  0.28283327  0.33487062    -0.30600
H1878       H  0.07716108  0.29523931  0.33884441     0.11300
S1879       S  0.05027679  0.30568367  0.26346669    -0.27700
H1880       H  0.09320105  0.28934216  0.26042367     0.08500
H1881       H  0.19726223  0.30736345  0.27177441     0.26900
H1882       H  0.10967566  0.28749109  0.35328959     0.21700
H1883       H  0.04088880  0.32273785  0.27534789     0.27100
H1884       H  0.09980679  0.24371908  0.29129739     0.15900
C1885       C  0.43774196  0.80637857  0.79349688    -0.11400
C1886       C  0.43055163  0.78525933  0.79779398     0.15200
C1887       C  0.44483988  0.77040942  0.80779843     0.02100
C1888       C  0.46550998  0.77730159  0.81417798    -0.15700
C1889       C  0.47244627  0.79863604  0.81048756    -0.10600
C1890       C  0.45851901  0.81315876  0.79954190     0.08800
C1891       C  0.40790834  0.77950753  0.79211929     0.09800
S1892       S  0.43752541  0.74266091  0.81333497    -0.24900
H1893       H  0.47612057  0.76605763  0.82249402     0.20100
S1894       S  0.46628165  0.84052783  0.79283239    -0.30600
H1895       H  0.42697718  0.81774012  0.78554374     0.10400
C1896       C  0.39164529  0.77764499  0.80806374     0.03600
C1897       C  0.37037579  0.77237449  0.80190127    -0.12900
C1898       C  0.36488046  0.76918238  0.78003521    -0.08600
C1899       C  0.38141103  0.77084104  0.76413906     0.07000
C1900       C  0.40255219  0.77626070  0.77032567    -0.13600
S1901       S  0.39782995  0.78278950  0.83617817    -0.30600
H1902       H  0.35783943  0.77124989  0.81412694     0.11300
S1903       S  0.37694589  0.76533146  0.73582169    -0.27700
H1904       H  0.41507421  0.77756660  0.75807128     0.08500
H1905       H  0.48856231  0.83625042  0.79065412     0.26900
H1906       H  0.37674441  0.77963602  0.84424379     0.21700
H1907       H  0.36294747  0.74771168  0.73945387     0.27100
H1908       H  0.42272452  0.74039869  0.79622245     0.15900
C1909       C  0.59020400  0.80303246  0.79770197    -0.11400
C1910       C  0.59515382  0.78087812  0.79881773     0.15200
C1911       C  0.57899530  0.76620719  0.80574950     0.02100
C1912       C  0.55868042  0.77409245  0.81229011    -0.15700
C1913       C  0.55392848  0.79635068  0.81168812    -0.10600
C1914       C  0.56976424  0.81085755  0.80363858     0.08800
C1915       C  0.61777245  0.77398472  0.79422953     0.09800
S1916       S  0.58338718  0.73733391  0.80675331    -0.24900
H1917       H  0.54661321  0.76281939  0.81824662     0.20100
S1918       S  0.56490510  0.83951681  0.80032849    -0.30600
H1919       H  0.60247068  0.81437037  0.79228927     0.10400
C1920       C  0.62706027  0.77612198  0.77345754     0.03600
C1921       C  0.64910894  0.77125614  0.77041161    -0.12900
C1922       C  0.66202347  0.76387956  0.78763274    -0.08600
C1923       C  0.65251870  0.76148793  0.80836797     0.07000
C1924       C  0.63058962  0.76648862  0.81138927    -0.13600
S1925       S  0.61062313  0.78425135  0.75068738    -0.30600
H1926       H  0.65624876  0.77277982  0.75445752     0.11300
S1927       S  0.66765052  0.75315668  0.83187876    -0.27700
H1928       H  0.62356349  0.76508133  0.82742299     0.08500
H1929       H  0.54266511  0.83760522  0.79578679     0.26900
H1930       H  0.62711940  0.78328886  0.73497227     0.21700
H1931       H  0.68665557  0.76436811  0.82618279     0.27100
H1932       H  0.59843863  0.73658052  0.78965101     0.15900
C1933       C  0.49841491  0.89942166  0.92242641    -0.11400
C1934       C  0.51635407  0.89654240  0.90874396     0.15200
C1935       C  0.53446025  0.91035750  0.91086247     0.02100
C1936       C  0.53450892  0.92618146  0.92708920    -0.15700
C1937       C  0.51690030  0.92848874  0.94129115    -0.10600
C1938       C  0.49838168  0.91540016  0.93849314     0.08800
C1939       C  0.51558135  0.87902567  0.89243452     0.09800
S1940       S  0.55803935  0.90849591  0.89364404    -0.24900
H1941       H  0.54861587  0.93644314  0.92904052     0.20100
S1942       S  0.47431279  0.91823791  0.95486398    -0.30600
H1943       H  0.48432402  0.88913359  0.92052002     0.10400
C1944       C  0.51763444  0.85710686  0.89855913     0.03600
C1945       C  0.51682213  0.84091944  0.88263734    -0.12900
C1946       C  0.51385037  0.84628638  0.86080293    -0.08600
C1947       C  0.51182488  0.86818773  0.85466241     0.07000
C1948       C  0.51269957  0.88439169  0.87057082    -0.13600
S1949       S  0.52184235  0.84983742  0.92657630    -0.30600
H1950       H  0.51854090  0.82404098  0.88711148     0.11300
S1951       S  0.50861368  0.87545865  0.82652350    -0.27700
H1952       H  0.51120971  0.90128199  0.86606270     0.08500
H1953       H  0.47710846  0.94022747  0.96005737     0.26900
H1954       H  0.52231358  0.82725924  0.92344927     0.21700
H1955       H  0.50713429  0.89798108  0.82974507     0.27100
H1956       H  0.55678341  0.88609160  0.88976447     0.15900
C1957       C  0.23588287  0.41241434  0.80723603    -0.11400
C1958       C  0.22023100  0.39715023  0.80104444     0.15200
C1959       C  0.19810316  0.40293291  0.80163679     0.02100
C1960       C  0.19218109  0.42384682  0.80796210    -0.15700
C1961       C  0.20773749  0.43904631  0.81461350    -0.10600
C1962       C  0.22989826  0.43317844  0.81425434     0.08800
C1963       C  0.22734055  0.37504984  0.79499940     0.09800
S1964       S  0.17658233  0.38424032  0.79519965    -0.24900
H1965       H  0.17515043  0.42815423  0.80825302     0.20100
S1966       S  0.25121232  0.45091641  0.82341280    -0.30600
H1967       H  0.25286086  0.40791407  0.80708802     0.10400
C1968       C  0.22521003  0.36710325  0.77370444     0.03600
C1969       C  0.23069108  0.34548250  0.76923042    -0.12900
C1970       C  0.23859667  0.33177245  0.78555812    -0.08600
C1971       C  0.24086226  0.33989513  0.80685498     0.07000
C1972       C  0.23545444  0.36145911  0.81125683    -0.13600
S1973       S  0.21606544  0.38464615  0.75216159    -0.30600
H1974       H  0.22919695  0.33930594  0.75288579     0.11300
S1975       S  0.24941750  0.32333671  0.82934940    -0.27700
H1976       H  0.23688641  0.36752006  0.82767041     0.08500
H1977       H  0.23904319  0.46092136  0.83989231     0.26900
H1978       H  0.21602935  0.36886420  0.73571609     0.21700
H1979       H  0.23867655  0.30448706  0.82238040     0.27100
H1980       H  0.18701570  0.36561692  0.80313542     0.15900
C1981       C  0.23320649  0.59822048  0.81246046    -0.11400
C1982       C  0.22666556  0.58498866  0.79519941     0.15200
C1983       C  0.22410654  0.59420624  0.77443794     0.02100
C1984       C  0.22761507  0.61643767  0.77149842    -0.15700
C1985       C  0.23420708  0.62971439  0.78874655    -0.10600
C1986       C  0.23689398  0.62041022  0.80951781     0.08800
C1987       C  0.22026004  0.56232536  0.79992005     0.09800
S1988       S  0.21675841  0.57835873  0.75103330    -0.24900
H1989       H  0.22580487  0.62330921  0.75545492     0.20100
S1990       S  0.24382500  0.63611047  0.83315905    -0.30600
H1991       H  0.23473844  0.59132289  0.82852499     0.10400
C1992       C  0.23543824  0.54645677  0.80625587     0.03600
C1993       C  0.22813737  0.52575792  0.81232141    -0.12900
C1994       C  0.20596850  0.52060534  0.81198738    -0.08600
C1995       C  0.19101375  0.53619313  0.80431914     0.07000
C1996       C  0.19825983  0.55690212  0.79877577    -0.13600
S1997       S  0.26403613  0.55256490  0.80656117    -0.30600
H1998       H  0.23961212  0.51376235  0.81800022     0.11300
S1999       S  0.16252208  0.53063801  0.80094954    -0.27700
H2000       H  0.18661387  0.56898028  0.79358495     0.08500
H2001       H  0.23217050  0.65468941  0.82693232     0.26900
H2002       H  0.27115404  0.53170285  0.81238035     0.21700
H2003       H  0.16507143  0.50843706  0.79641147     0.27100
H2004       H  0.22633494  0.55894086  0.75814159     0.15900
C2005       C  0.12322407  0.46956917  0.87737677    -0.11400
C2006       C  0.12685669  0.48119781  0.89652384     0.15200
C2007       C  0.14668364  0.49219246  0.89940671     0.02100
C2008       C  0.16216416  0.49185499  0.88285235    -0.15700
C2009       C  0.15851825  0.48037313  0.86357700    -0.10600
C2010       C  0.13868774  0.46922245  0.86079347     0.08800
C2011       C  0.10934656  0.48221309  0.91283066     0.09800
S2012       S  0.15317365  0.50687289  0.92381271    -0.24900
H2013       H  0.17736303  0.50031927  0.88516614     0.20100
S2014       S  0.13167734  0.45510372  0.83618741    -0.30600
H2015       H  0.10794908  0.46122856  0.87509703     0.10400
C2016       C  0.09676919  0.50109044  0.91564686     0.03600
C2017       C  0.08067850  0.50149960  0.93168396    -0.12900
C2018       C  0.07674417  0.48329268  0.94468726    -0.08600
C2019       C  0.08893143  0.46418172  0.94137870     0.07000
C2020       C  0.10519887  0.46390911  0.92559641    -0.13600
S2021       S  0.10098582  0.52448639  0.89858962    -0.30600
H2022       H  0.07109996  0.51600006  0.93419230     0.11300
S2023       S  0.08464524  0.43974545  0.95682565    -0.27700
H2024       H  0.11472876  0.44933397  0.92323057     0.08500
H2025       H  0.14268242  0.46928966  0.82216033     0.26900
H2026       H  0.08395789  0.53708467  0.90706224     0.21700
H2027       H  0.06247227  0.44297744  0.96087120     0.27100
H2028       H  0.14121641  0.49360806  0.93794154     0.15900
C2029       C  0.59135464  0.16680776  0.79779589    -0.11400
C2030       C  0.59813802  0.18811028  0.80157715     0.15200
C2031       C  0.58379638  0.20287804  0.81171406     0.02100
C2032       C  0.56328895  0.19573722  0.81848489    -0.15700
C2033       C  0.55679101  0.17421229  0.81518060    -0.10600
C2034       C  0.57092417  0.15970968  0.80440997     0.08800
C2035       C  0.62070676  0.19373573  0.79570493     0.09800
S2036       S  0.59094623  0.23068766  0.81713039    -0.24900
H2037       H  0.55254834  0.20686298  0.82683883     0.20100
S2038       S  0.56423363  0.13168751  0.79927660    -0.30600
H2039       H  0.60229717  0.15546322  0.79000236     0.10400
C2040       C  0.63731829  0.19390357  0.81131554     0.03600
C2041       C  0.65879117  0.19773084  0.80480339    -0.12900
C2042       C  0.66408569  0.20103029  0.78289444    -0.08600
C2043       C  0.64723077  0.20106004  0.76733632     0.07000
C2044       C  0.62585477  0.19719921  0.77388603    -0.13600
S2045       S  0.63125395  0.18827526  0.83937960    -0.30600
H2046       H  0.67160885  0.19758946  0.81674726     0.11300
S2047       S  0.65170155  0.20655397  0.73900959    -0.27700
H2048       H  0.61306605  0.19697167  0.76188195     0.08500
H2049       H  0.54169723  0.13455057  0.79783903     0.26900
H2050       H  0.65259628  0.19003801  0.84712228     0.21700
H2051       H  0.66727041  0.22281410  0.74252686     0.27100
H2052       H  0.60601060  0.23286454  0.80019262     0.15900
C2053       C  0.40024531  0.16727576  0.77915272    -0.11400
C2054       C  0.41229168  0.18353373  0.78945823     0.15200
C2055       C  0.40278309  0.20414903  0.79261792     0.02100
C2056       C  0.38119279  0.20760620  0.78654176    -0.15700
C2057       C  0.36892360  0.19121098  0.77659063    -0.10600
C2058       C  0.37874072  0.17078854  0.77283837     0.08800
C2059       C  0.43419878  0.17798487  0.79771623     0.09800
S2060       S  0.41734401  0.22678395  0.80403021    -0.24900
H2061       H  0.37404433  0.22344082  0.78919376     0.20100
S2062       S  0.36445567  0.14808633  0.76133810    -0.30600
H2063       H  0.40742884  0.15141998  0.77671670     0.10400
C2064       C  0.43850384  0.17688255  0.82011770     0.03600
C2065       C  0.45930951  0.17119956  0.82719645    -0.12900
C2066       C  0.47587355  0.16597063  0.81244170    -0.08600
C2067       C  0.47128893  0.16630682  0.79001618     0.07000
C2068       C  0.45064974  0.17259673  0.78292308    -0.13600
S2069       S  0.41730502  0.18169218  0.83977865    -0.30600
H2070       H  0.46272184  0.17067899  0.84438167     0.11300
S2071       S  0.49057847  0.15784635  0.76973320    -0.27700
H2072       H  0.44722533  0.17288333  0.76572028     0.08500
H2073       H  0.34491354  0.15224249  0.77234394     0.26900
H2074       H  0.43037203  0.18012833  0.85835250     0.21700
H2075       H  0.50081064  0.14214173  0.78267071     0.27100
H2076       H  0.43812061  0.21991607  0.79767105     0.15900
C2077       C  0.53636015  0.05302992  0.90917039    -0.11400
C2078       C  0.52696614  0.07315229  0.91435849     0.15200
C2079       C  0.51918350  0.07644849  0.93572269     0.02100
C2080       C  0.51947341  0.05931287  0.95048696    -0.15700
C2081       C  0.52980816  0.03962552  0.94556977    -0.10600
C2082       C  0.53935188  0.03703030  0.92488941     0.08800
C2083       C  0.52500787  0.09005739  0.89717711     0.09800
S2084       S  0.50968677  0.10225992  0.94572417    -0.24900
H2085       H  0.51216899  0.06164040  0.96628860     0.20100
S2086       S  0.55609274  0.01411400  0.91769275    -0.30600
H2087       H  0.54206099  0.04993078  0.89286882     0.10400
C2088       C  0.54263423  0.09591460  0.88375914     0.03600
C2089       C  0.53955538  0.11133839  0.86742419    -0.12900
C2090       C  0.52013193  0.12323542  0.86562751    -0.08600
C2091       C  0.50304967  0.11834194  0.88024340     0.07000
C2092       C  0.50513931  0.10082752  0.89444554    -0.13600
S2093       S  0.56954812  0.08503653  0.88798071    -0.30600
H2094       H  0.55266600  0.11427423  0.85619234     0.11300
S2095       S  0.47912840  0.13485808  0.88359991    -0.27700
H2096       H  0.49141859  0.09644277  0.90447560     0.08500
H2097       H  0.56365942  0.01014728  0.93879239     0.26900
H2098       H  0.58042679  0.09814055  0.87284257     0.21700
H2099       H  0.48972103  0.15457259  0.87928445     0.27100
H2100       H  0.52388428  0.11476465  0.93301554     0.15900
C2101       C  0.81374201  0.56354682  0.82259445    -0.11400
C2102       C  0.81596351  0.56814452  0.80045708     0.15200
C2103       C  0.82378369  0.55179028  0.78640470     0.02100
C2104       C  0.82999293  0.53165404  0.79491657    -0.15700
C2105       C  0.82809582  0.52724574  0.81713650    -0.10600
C2106       C  0.81920056  0.54322488  0.83095939     0.08800
C2107       C  0.81111072  0.59049436  0.79293465     0.09800
S2108       S  0.82629452  0.55562593  0.75756423    -0.24900
H2109       H  0.83667431  0.51944614  0.78418480     0.20100
S2110       S  0.81417370  0.53862079  0.85937447    -0.30600
H2111       H  0.80769484  0.57594990  0.83348134     0.10400
C2112       C  0.79024133  0.59960524  0.79511516     0.03600
C2113       C  0.78682962  0.62134925  0.78940010    -0.12900
C2114       C  0.80375913  0.63418066  0.78125615    -0.08600
C2115       C  0.82463234  0.62494436  0.77893510     0.07000
C2116       C  0.82802691  0.60326490  0.78471391    -0.13600
S2117       S  0.76775949  0.58336908  0.80449873    -0.30600
H2118       H  0.77079473  0.62832532  0.79091656     0.11300
S2119       S  0.84783895  0.64015577  0.76975863    -0.27700
H2120       H  0.84415246  0.59642884  0.78333969     0.08500
H2121       H  0.80997452  0.51630543  0.85738073     0.26900
H2122       H  0.75186501  0.59967008  0.80325511     0.21700
H2123       H  0.84196112  0.65951648  0.78029230     0.27100
H2124       H  0.80908059  0.57043985  0.75564311     0.15900
C2125       C  0.79984471  0.41924649  0.81441957    -0.11400
C2126       C  0.81516298  0.40347456  0.80843594     0.15200
C2127       C  0.83736650  0.40895416  0.80855799     0.02100
C2128       C  0.84371573  0.42990686  0.81443851    -0.15700
C2129       C  0.82850477  0.44558275  0.82095863    -0.10600
C2130       C  0.80625948  0.44000920  0.82110706     0.08800
C2131       C  0.80766366  0.38137811  0.80243086     0.09800
S2132       S  0.85845396  0.38980585  0.80190493    -0.24900
H2133       H  0.86080687  0.43392029  0.81429546     0.20100
S2134       S  0.78538596  0.45809618  0.83073598    -0.30600
H2135       H  0.78278365  0.41511597  0.81448439     0.10400
C2136       C  0.79859131  0.36726769  0.81794323     0.03600
C2137       C  0.79269805  0.34614731  0.81183853    -0.12900
C2138       C  0.79573904  0.33869026  0.79052397    -0.08600
C2139       C  0.80423365  0.35312966  0.77487541     0.07000
C2140       C  0.81025386  0.37415918  0.78102515    -0.13600
S2141       S  0.79559222  0.37571107  0.84581076    -0.30600
H2142       H  0.78625228  0.33515319  0.82388830     0.11300
S2143       S  0.80703076  0.34603795  0.74668646    -0.27700
H2144       H  0.81693308  0.38506366  0.76899838     0.08500
H2145       H  0.79806671  0.46772183  0.84700985     0.26900
H2146       H  0.78378982  0.35753446  0.85285222     0.21700
H2147       H  0.78801738  0.33351393  0.74579600     0.27100
H2148       H  0.84793358  0.37154545  0.81054103     0.15900
C2149       C  0.91677216  0.49550048  0.87619224    -0.11400
C2150       C  0.91204451  0.49084893  0.89789749     0.15200
C2151       C  0.89056434  0.48576137  0.90395845     0.02100
C2152       C  0.87448228  0.48465140  0.88805248    -0.15700
C2153       C  0.87928769  0.48898458  0.86628155    -0.10600
C2154       C  0.90068588  0.49445975  0.86030999     0.08800
C2155       C  0.93009495  0.49025790  0.91355306     0.09800
S2156       S  0.88269661  0.48044645  0.93160831    -0.24900
H2157       H  0.85802414  0.48065705  0.89270210     0.20100
S2158       S  0.90859093  0.49973045  0.83268198    -0.30600
H2159       H  0.93325819  0.49934633  0.87151298     0.10400
C2160       C  0.93842205  0.47042341  0.92121256     0.03600
C2161       C  0.95521745  0.47056011  0.93643135    -0.12900
C2162       C  0.96412169  0.49012574  0.94375318    -0.08600
C2163       C  0.95620090  0.50997616  0.93557015     0.07000
C2164       C  0.93917510  0.50982271  0.92064974    -0.13600
S2165       S  0.92787462  0.44497268  0.91134942    -0.30600
H2166       H  0.96145981  0.45543659  0.94276505     0.11300
S2167       S  0.96658027  0.53596860  0.94402352    -0.27700
H2168       H  0.93285436  0.52504740  0.91459827     0.08500
H2169       H  0.89370704  0.48544053  0.82307739     0.26900
H2170       H  0.94139081  0.43144357  0.92372413     0.21700
H2171       H  0.98745462  0.52894842  0.94971397     0.27100
H2172       H  0.89876213  0.49323383  0.94140782     0.15900
C2173       C  0.83314153  0.36634544  0.21810025    -0.11400
C2174       C  0.81570862  0.37861438  0.21017131     0.15200
C2175       C  0.79529113  0.36858414  0.20767446     0.02100
C2176       C  0.79294336  0.34657362  0.21254606    -0.15700
C2177       C  0.81032989  0.33433718  0.22062636    -0.10600
C2178       C  0.83069150  0.34443963  0.22341241     0.08800
C2179       C  0.81988423  0.40109631  0.20268880     0.09800
S2180       S  0.77149516  0.38307009  0.19884983    -0.24900
H2181       H  0.77719253  0.33907353  0.21060030     0.20100
S2182       S  0.85446281  0.33012161  0.23252247    -0.30600
H2183       H  0.84898351  0.37375655  0.21957109     0.10400
C2184       C  0.82791747  0.41728320  0.21671374     0.03600
C2185       C  0.83325123  0.43774764  0.20832195    -0.12900
C2186       C  0.83054356  0.44240653  0.18625247    -0.08600
C2187       C  0.82136369  0.42655063  0.17252834     0.07000
C2188       C  0.81658940  0.40602559  0.18076777    -0.13600
S2189       S  0.83129867  0.41198436  0.24527872    -0.30600
H2190       H  0.84017502  0.44997335  0.21880962     0.11300
S2191       S  0.81523641  0.43151626  0.14439859    -0.27700
H2192       H  0.81032160  0.39371024  0.16994488     0.08500
H2193       H  0.84956951  0.31066125  0.22171892     0.26900
H2194       H  0.83962552  0.43244337  0.25087381     0.21700
H2195       H  0.81140426  0.45387342  0.14674497     0.27100
H2196       H  0.77756374  0.40315287  0.20774127     0.15900
C2197       C  0.81380723  0.59281913  0.22813359    -0.11400
C2198       C  0.81538460  0.58808224  0.20600220     0.15200
C2199       C  0.81033283  0.60430420  0.19074534     0.02100
C2200       C  0.80400218  0.62490670  0.19789778    -0.15700
C2201       C  0.80286894  0.62999064  0.22009621    -0.10600
C2202       C  0.80734504  0.61338085  0.23535097     0.08800
C2203       C  0.82184714  0.56595028  0.19927716     0.09800
S2204       S  0.81190265  0.59976466  0.16193290    -0.24900
H2205       H  0.80058407  0.63727012  0.18592583     0.20100
S2206       S  0.80412758  0.61685554  0.26415667    -0.30600
H2207       H  0.81728829  0.58024754  0.23988025     0.10400
C2208       C  0.84379216  0.55975221  0.19851708     0.03600
C2209       C  0.84930300  0.53886038  0.19144961    -0.12900
C2210       C  0.83334097  0.52404750  0.18479542    -0.08600
C2211       C  0.81132874  0.53048007  0.18530347     0.07000
C2212       C  0.80583203  0.55119487  0.19285955    -0.13600
S2213       S  0.86480125  0.57872477  0.20585950    -0.30600
H2214       H  0.86616463  0.53402394  0.19097098     0.11300
S2215       S  0.78962635  0.51361584  0.17544749    -0.27700
H2216       H  0.78897254  0.55610673  0.19316088     0.08500
H2217       H  0.78488503  0.62898795  0.26243489     0.26900
H2218       H  0.88248737  0.56535478  0.20048862     0.21700
H2219       H  0.80167647  0.50399377  0.15864233     0.27100
H2220       H  0.82980647  0.58569492  0.16260911     0.15900
C2221       C  0.94198981  0.50135997  0.08482895    -0.11400
C2222       C  0.93011404  0.48217684  0.08734270     0.15200
C2223       C  0.93455269  0.46421836  0.07388627     0.02100
C2224       C  0.95106693  0.46570870  0.05847416    -0.15700
C2225       C  0.96290294  0.48491237  0.05590396    -0.10600
C2226       C  0.95822149  0.50300028  0.06911636     0.08800
C2227       C  0.91317986  0.48144042  0.10413016     0.09800
S2228       S  0.91995289  0.43896096  0.07571621    -0.24900
H2229       H  0.95463809  0.45187037  0.04825019     0.20100
S2230       S  0.97245687  0.52844429  0.06693030    -0.30600
H2231       H  0.93849378  0.51516279  0.09512886     0.10400
C2232       C  0.91698596  0.47182102  0.12443694     0.03600
C2233       C  0.90030483  0.47149052  0.13986633    -0.12900
C2234       C  0.87997378  0.48059015  0.13525781    -0.08600
C2235       C  0.87610541  0.48968073  0.11464106     0.07000
C2236       C  0.89286437  0.49037009  0.09945414    -0.13600
S2237       S  0.94320521  0.46047721  0.13077945    -0.30600
H2238       H  0.90316825  0.46455248  0.15570804     0.11300
S2239       S  0.85002235  0.50008055  0.10656318    -0.27700
H2240       H  0.88994772  0.49749389  0.08368572     0.08500
H2241       H  0.97799573  0.52676727  0.04493023     0.26900
H2242       H  0.93812849  0.45382117  0.15196743     0.21700
H2243       H  0.83772627  0.48558840  0.11913691     0.27100
H2244       H  0.90021168  0.44773096  0.08292818     0.15900
C2245       C  0.58389128  0.76730799  0.19164371    -0.11400
C2246       C  0.59937387  0.78276213  0.19775026     0.15200
C2247       C  0.59356918  0.80491121  0.19809857     0.02100
C2248       C  0.57244162  0.81102869  0.19264155    -0.15700
C2249       C  0.55700500  0.79564270  0.18609110    -0.10600
C2250       C  0.56293077  0.77349734  0.18552416     0.08800
C2251       C  0.62162753  0.77538937  0.20289562     0.09800
S2252       S  0.61243973  0.82620377  0.20481458    -0.24900
H2253       H  0.56814798  0.82806571  0.19292218     0.20100
S2254       S  0.54500580  0.75250383  0.17601454    -0.30600
H2255       H  0.58837521  0.75032889  0.19108817     0.10400
C2256       C  0.62976502  0.77587942  0.22419268     0.03600
C2257       C  0.65142327  0.77007103  0.22799881    -0.12900
C2258       C  0.66500357  0.76336272  0.21098075    -0.08600
C2259       C  0.65665375  0.76261577  0.18967183     0.07000
C2260       C  0.63506694  0.76845900  0.18591955    -0.13600
S2261       S  0.61238158  0.78331091  0.24655325    -0.30600
H2262       H  0.65773097  0.77035395  0.24434782     0.11300
S2263       S  0.67288960  0.75535273  0.16645343    -0.27700
H2264       H  0.62883892  0.76820314  0.16952122     0.08500
H2265       H  0.53549769  0.76501781  0.15953674     0.26900
H2266       H  0.62830701  0.78219082  0.26277997     0.21700
H2267       H  0.69204414  0.76509114  0.17398999     0.27100
H2268       H  0.63105356  0.81583070  0.19673779     0.15900
C2269       C  0.39841337  0.76473194  0.18790408    -0.11400
C2270       C  0.41145175  0.77245935  0.20483847     0.15200
C2271       C  0.40243865  0.77444152  0.22579471     0.02100
C2272       C  0.38069333  0.76897336  0.22926830    -0.15700
C2273       C  0.36767218  0.76110866  0.21238381    -0.10600
C2274       C  0.37668142  0.75915923  0.19138853     0.08800
C2275       C  0.43380230  0.77983263  0.19976791     0.09800
S2276       S  0.41786987  0.78358827  0.24882607    -0.24900
H2277       H  0.37399882  0.77041659  0.24544386     0.20100
S2278       S  0.36106237  0.75087131  0.16814849    -0.30600
H2279       H  0.40507856  0.76361883  0.17169185     0.10400
C2280       C  0.45010493  0.76524571  0.19304295     0.03600
C2281       C  0.47064783  0.77321375  0.18727124    -0.12900
C2282       C  0.47526878  0.79548000  0.18821689    -0.08600
C2283       C  0.45920762  0.80988371  0.19602490     0.07000
C2284       C  0.43863780  0.80198076  0.20135086    -0.13600
S2285       S  0.44477924  0.73649453  0.19189937    -0.30600
H2286       H  0.48297163  0.76217887  0.18137455     0.11300
S2287       S  0.46403002  0.83846563  0.19982306    -0.27700
H2288       H  0.42625149  0.81320154  0.20679659     0.08500
H2289       H  0.34177759  0.76112948  0.17472677     0.26900
H2290       H  0.46590617  0.73006097  0.18621172     0.21700
H2291       H  0.48624693  0.83642325  0.20442771     0.27100
H2292       H  0.43798803  0.77569212  0.24157346     0.15900
C2293       C  0.50051951  0.89455521  0.07255822    -0.11400
C2294       C  0.51756227  0.89251265  0.08740034     0.15200
C2295       C  0.53572338  0.90626800  0.08565164     0.02100
C2296       C  0.53654071  0.92160426  0.06901981    -0.15700
C2297       C  0.51942719  0.92383292  0.05425730    -0.10600
C2298       C  0.50112188  0.91019906  0.05616307     0.08800
C2299       C  0.51630692  0.87533867  0.10400209     0.09800
S2300       S  0.55838514  0.90495442  0.10400308    -0.24900
H2301       H  0.55056052  0.93208323  0.06766961     0.20100
S2302       S  0.47807510  0.91189666  0.03831222    -0.30600
H2303       H  0.48659597  0.88394407  0.07386139     0.10400
C2304       C  0.50410222  0.87812010  0.12308935     0.03600
C2305       C  0.50357121  0.86143797  0.13849263    -0.12900
C2306       C  0.51501414  0.84201650  0.13517620    -0.08600
C2307       C  0.52680306  0.83913466  0.11569097     0.07000
C2308       C  0.52751651  0.85591235  0.10049348    -0.13600
S2309       S  0.48994541  0.90324513  0.12817311    -0.30600
H2310       H  0.49466818  0.86370284  0.15344892     0.11300
S2311       S  0.54078260  0.81434147  0.10890343    -0.27700
H2312       H  0.53670020  0.85374853  0.08567204     0.08500
H2313       H  0.47983076  0.93415961  0.03388326     0.26900
H2314       H  0.48206835  0.89778125  0.14884714     0.21700
H2315       H  0.52656933  0.80052246  0.12013103     0.27100
H2316       H  0.54647194  0.89841888  0.12227034     0.15900
C2317       C  0.83678782  0.78798432  0.42179938    -0.11400
C2318       C  0.81459914  0.78849146  0.41696942     0.15200
C2319       C  0.79966191  0.79346187  0.43364003     0.02100
C2320       C  0.80731288  0.79900921  0.45425873    -0.15700
C2321       C  0.82956853  0.79887669  0.45904187    -0.10600
C2322       C  0.84438682  0.79266211  0.44263060     0.08800
C2323       C  0.80769604  0.78304187  0.39458677     0.09800
S2324       S  0.77068955  0.79279853  0.42982668    -0.24900
H2325       H  0.79575466  0.80356930  0.46668407     0.20100
S2326       S  0.87305489  0.78950098  0.44731815    -0.30600
H2327       H  0.84828938  0.78360771  0.40925001     0.10400
C2328       C  0.79810429  0.79848547  0.38074567     0.03600
C2329       C  0.79160958  0.79224396  0.35984583    -0.12900
C2330       C  0.79501198  0.77101125  0.35223136    -0.08600
C2331       C  0.80485970  0.75569405  0.36614073     0.07000
C2332       C  0.81120620  0.76191456  0.38698090    -0.13600
S2333       S  0.79504248  0.82633683  0.38929673    -0.30600
H2334       H  0.78434587  0.80409609  0.34915951     0.11300
S2335       S  0.80897488  0.72773354  0.35873622    -0.27700
H2336       H  0.81861389  0.75003418  0.39756849     0.08500
H2337       H  0.87101329  0.78300634  0.46905262     0.26900
H2338       H  0.78637755  0.83425502  0.36978796     0.21700
H2339       H  0.78952542  0.72575726  0.34706542     0.27100
H2340       H  0.77063114  0.77693002  0.41349458     0.15900
C2341       C  0.80593046  0.80414679  0.57521867    -0.11400
C2342       C  0.80952982  0.78254068  0.58120857     0.15200
C2343       C  0.81880212  0.76805956  0.56605315     0.02100
C2344       C  0.82555269  0.77587433  0.54582467    -0.15700
C2345       C  0.82290439  0.79777114  0.54024762    -0.10600
C2346       C  0.81223620  0.81183916  0.55488022     0.08800
C2347       C  0.80417633  0.77612710  0.60368983     0.09800
S2348       S  0.82312687  0.73970875  0.57175127    -0.24900
H2349       H  0.83353501  0.76494830  0.53460908     0.20100
S2350       S  0.80630672  0.83979213  0.54863438    -0.30600
H2351       H  0.79842810  0.81520193  0.58664342     0.10400
C2352       C  0.82038651  0.77374847  0.61956327     0.03600
C2353       C  0.81439442  0.76967097  0.64112705    -0.12900
C2354       C  0.79248714  0.76778863  0.64715283    -0.08600
C2355       C  0.77642001  0.76884851  0.63083961     0.07000
C2356       C  0.78238894  0.77354332  0.60948192    -0.13600
S2357       S  0.84863889  0.77683536  0.61253525    -0.30600
H2358       H  0.82679751  0.76858178  0.65345410     0.11300
S2359       S  0.74819820  0.76331869  0.63592748    -0.27700
H2360       H  0.76996679  0.77493140  0.59717604     0.08500
H2361       H  0.80454256  0.83687339  0.52611771     0.26900
H2362       H  0.85707690  0.77148987  0.63299475     0.21700
H2363       H  0.75216453  0.74658807  0.65089305     0.27100
H2364       H  0.80686493  0.73760272  0.58755020     0.15900
C2365       C  0.88968950  0.88319266  0.49374270    -0.11400
C2366       C  0.90833427  0.87942502  0.50610637     0.15200
C2367       C  0.90991775  0.86029766  0.51853283     0.02100
C2368       C  0.89319299  0.84501475  0.51767792    -0.15700
C2369       C  0.87481683  0.84840394  0.50470772    -0.10600
C2370       C  0.87277008  0.86813762  0.49325247     0.08800
C2371       C  0.92574592  0.89583931  0.50580419     0.09800
S2372       S  0.93281222  0.85438894  0.53569278    -0.24900
H2373       H  0.89478914  0.83008669  0.52677759     0.20100
S2374       S  0.84863563  0.87549954  0.47855128    -0.30600
H2375       H  0.88820211  0.89813985  0.48465236     0.10400
C2376       C  0.94058645  0.89693242  0.48848035     0.03600
C2377       C  0.95692160  0.91270281  0.48874304    -0.12900
C2378       C  0.95878063  0.92727828  0.50608484    -0.08600
C2379       C  0.94412690  0.92583595  0.52364658     0.07000
C2380       C  0.92762697  0.91030882  0.52319332    -0.13600
S2381       S  0.93882434  0.87806167  0.46618812    -0.30600
H2382       H  0.96818252  0.91389783  0.47533428     0.11300
S2383       S  0.94563978  0.94331510  0.54701295    -0.27700
H2384       H  0.91629359  0.90932467  0.53657790     0.08500
H2385       H  0.83418533  0.86468429  0.49247694     0.26900
H2386       H  0.95793922  0.88460987  0.45563542     0.21700
H2387       H  0.96821351  0.94623813  0.54638782     0.27100
H2388       H  0.94841166  0.86558481  0.52347488     0.15900
C2389       C  0.82696171  0.20037035  0.61982481    -0.11400
C2390       C  0.80953232  0.19455200  0.60646808     0.15200
C2391       C  0.78842323  0.19397639  0.61540690     0.02100
C2392       C  0.78527253  0.19938993  0.63724951    -0.15700
C2393       C  0.80268061  0.20561223  0.65046746    -0.10600
C2394       C  0.82382925  0.20562786  0.64166203     0.08800
C2395       C  0.81431093  0.18755950  0.58389359     0.09800
S2396       S  0.76482329  0.18670633  0.59983845    -0.24900
H2397       H  0.76900510  0.19917230  0.64388377     0.20100
S2398       S  0.84766972  0.21065715  0.65768370    -0.30600
H2399       H  0.84328102  0.20014489  0.61331657     0.10400
C2400       C  0.82344149  0.20185479  0.56853952     0.03600
C2401       C  0.82957855  0.19396232  0.54806192    -0.12900
C2402       C  0.82667260  0.17207998  0.54255342    -0.08600
C2403       C  0.81641366  0.15811152  0.55754197     0.07000
C2404       C  0.81069549  0.16588316  0.57807667    -0.13600
S2405       S  0.82734014  0.23013440  0.57502396    -0.30600
H2406       H  0.83732185  0.20467243  0.53653210     0.11300
S2407       S  0.81011014  0.13023094  0.55142021    -0.27700
H2408       H  0.80351893  0.15487859  0.58972006     0.08500
H2409       H  0.83942380  0.20182014  0.67699268     0.26900
H2410       H  0.83508768  0.23653321  0.55457305     0.21700
H2411       H  0.80747684  0.13326415  0.52900501     0.27100
H2412       H  0.77273393  0.19404058  0.57978548     0.15900
C2413       C  0.81250364  0.20823998  0.38818236    -0.11400
C2414       C  0.81214559  0.18675376  0.39560799     0.15200
C2415       C  0.80518769  0.17014015  0.38148234     0.02100
C2416       C  0.79870311  0.17536068  0.36041573    -0.15700
C2417       C  0.79960400  0.19676186  0.35279366    -0.10600
C2418       C  0.80625574  0.21342549  0.36701982     0.08800
C2419       C  0.81874071  0.18219220  0.41823371     0.09800
S2420       S  0.80484790  0.14191828  0.38909396    -0.24900
H2421       H  0.79366030  0.16247301  0.34961014     0.20100
S2422       S  0.80628287  0.24164641  0.35944960    -0.30600
H2423       H  0.81748761  0.22108846  0.39905769     0.10400
C2424       C  0.84047237  0.18430800  0.42487261     0.03600
C2425       C  0.84620031  0.17888849  0.44616286    -0.12900
C2426       C  0.83072666  0.17108135  0.46094220    -0.08600
C2427       C  0.80895663  0.16891587  0.45417603     0.07000
C2428       C  0.80315515  0.17488089  0.43308585    -0.13600
S2429       S  0.86113730  0.19273614  0.40591282    -0.30600
H2430       H  0.86292361  0.18024529  0.45124829     0.11300
S2431       S  0.78812505  0.15735965  0.47109695    -0.27700
H2432       H  0.78648099  0.17306484  0.42792941     0.08500
H2433       H  0.78782035  0.24034362  0.34619037     0.26900
H2434       H  0.87843639  0.19306908  0.42070492     0.21700
H2435       H  0.80159540  0.14189587  0.48102598     0.27100
H2436       H  0.82274871  0.14293398  0.40310217     0.15900
C2437       C  0.94034603  0.07017897  0.48682593    -0.11400
C2438       C  0.92714312  0.07311181  0.50508485     0.15200
C2439       C  0.92973863  0.05939175  0.52320294     0.02100
C2440       C  0.94555230  0.04315268  0.52269377    -0.15700
C2441       C  0.95862928  0.04011070  0.50436331    -0.10600
C2442       C  0.95600905  0.05379904  0.48623157     0.08800
C2443       C  0.91063077  0.09042590  0.50462091     0.09800
S2444       S  0.91363166  0.06188929  0.54749442    -0.24900
H2445       H  0.94766544  0.03273172  0.53665401     0.20100
S2446       S  0.97228198  0.05139761  0.46202973    -0.30600
H2447       H  0.93836105  0.08069904  0.47291957     0.10400
C2448       C  0.91367422  0.11020621  0.51557978     0.03600
C2449       C  0.89711989  0.12580638  0.51532272    -0.12900
C2450       C  0.87763168  0.12198383  0.50425288    -0.08600
C2451       C  0.87466179  0.10201836  0.49337455     0.07000
C2452       C  0.89129403  0.08663588  0.49342747    -0.13600
S2453       S  0.93883242  0.11572650  0.52939327    -0.30600
H2454       H  0.89946758  0.14120192  0.52340511     0.11300
S2455       S  0.84983654  0.09484683  0.47975898    -0.27700
H2456       H  0.88894758  0.07131984  0.48515451     0.08500
H2457       H  0.97628278  0.02903332  0.46354169     0.26900
H2458       H  0.93240087  0.13553255  0.53869969     0.21700
H2459       H  0.83604083  0.10634529  0.49382513     0.27100
H2460       H  0.89492020  0.07022871  0.53761326     0.15900
C2461       C  0.21815901  0.80218058  0.57786795    -0.11400
C2462       C  0.21576733  0.78001086  0.58233224     0.15200
C2463       C  0.20816509  0.76611281  0.56579239     0.02100
C2464       C  0.20222372  0.77480870  0.54567599    -0.15700
C2465       C  0.20417376  0.79708339  0.54140883    -0.10600
C2466       C  0.21298827  0.81073566  0.55754965     0.08800
C2467       C  0.21996889  0.77234512  0.60477796     0.09800
S2468       S  0.20558326  0.73722963  0.56936834    -0.24900
H2469       H  0.19567144  0.76415636  0.53336568     0.20100
S2470       S  0.21836658  0.83913195  0.55317770    -0.30600
H2471       H  0.22406288  0.81296388  0.59039503     0.10400
C2472       C  0.24050176  0.77456652  0.61455299     0.03600
C2473       C  0.24317209  0.76893061  0.63641127    -0.12900
C2474       C  0.22582050  0.76090748  0.64876881    -0.08600
C2475       C  0.20529235  0.75857181  0.63887644     0.07000
C2476       C  0.20265599  0.76415822  0.61705103    -0.13600
S2477       S  0.26350316  0.78396602  0.59905884    -0.30600
H2478       H  0.25895251  0.77048650  0.64387926     0.11300
S2479       S  0.18153340  0.74985952  0.65346985    -0.27700
H2480       H  0.18676501  0.76279434  0.60974085     0.08500
H2481       H  0.22279597  0.83718861  0.53090735     0.26900
H2482       H  0.27862890  0.78355677  0.61606412     0.21700
H2483       H  0.18679651  0.76083942  0.67272466     0.27100
H2484       H  0.22267309  0.73516986  0.58425668     0.15900
C2485       C  0.23119350  0.79520465  0.43256192    -0.11400
C2486       C  0.21611060  0.78752979  0.41740169     0.15200
C2487       C  0.19424960  0.78503100  0.42372648     0.02100
C2488       C  0.18797260  0.79042792  0.44484686    -0.15700
C2489       C  0.20290216  0.79877018  0.45982726    -0.10600
C2490       C  0.22479041  0.80121932  0.45349712     0.08800
C2491       C  0.22365816  0.78220952  0.39518823     0.09800
S2492       S  0.17348210  0.77561347  0.40549190    -0.24900
H2493       H  0.17113274  0.78862085  0.44950467     0.20100
S2494       S  0.24508782  0.81292317  0.47089807    -0.30600
H2495       H  0.24799875  0.79709923  0.42781935     0.10400
C2496       C  0.23102089  0.79844424  0.38086993     0.03600
C2497       C  0.23790182  0.79267173  0.35995813    -0.12900
C2498       C  0.23729754  0.77103144  0.35293522    -0.08600
C2499       C  0.23020007  0.75478675  0.36745186     0.07000
C2500       C  0.22337806  0.76055563  0.38829988    -0.13600
S2501       S  0.23063778  0.82663225  0.38882235    -0.30600
H2502       H  0.24317985  0.80512129  0.34878718     0.11300
S2503       S  0.23019107  0.72635617  0.36066528    -0.27700
H2504       H  0.21796165  0.74803601  0.39934916     0.08500
H2505       H  0.23124936  0.82830622  0.48050495     0.26900
H2506       H  0.23920857  0.83504321  0.36945705     0.21700
H2507       H  0.24913722  0.72712883  0.34800208     0.27100
H2508       H  0.18237279  0.78489441  0.38669083     0.15900
C2509       C  0.14053137  0.88274719  0.48951786    -0.11400
C2510       C  0.12133747  0.87930713  0.50115066     0.15200
C2511       C  0.11904300  0.86032058  0.51367509     0.02100
C2512       C  0.13584231  0.84506801  0.51406169    -0.15700
C2513       C  0.15496248  0.84826136  0.50212213    -0.10600
C2514       C  0.15748602  0.86768182  0.49017593     0.08800
C2515       C  0.10451157  0.89636927  0.50086507     0.09800
S2516       S  0.09525980  0.85479356  0.52975155    -0.24900
H2517       H  0.13377381  0.83033913  0.52338549     0.20100
S2518       S  0.18227030  0.87474561  0.47636120    -0.30600
H2519       H  0.14252884  0.89757794  0.48033422     0.10400
C2520       C  0.10384906  0.91258560  0.51690003     0.03600
C2521       C  0.08731046  0.92817099  0.51640104    -0.12900
C2522       C  0.07163875  0.92806288  0.49994381    -0.08600
C2523       C  0.07272649  0.91211422  0.48353038     0.07000
C2524       C  0.08903941  0.89635100  0.48427288    -0.13600
S2525       S  0.12422193  0.91349763  0.53783361    -0.30600
H2526       H  0.08652818  0.94055654  0.52880706     0.11300
S2527       S  0.05389724  0.91103639  0.46124125    -0.27700
H2528       H  0.08972977  0.88398316  0.47182192     0.08500
H2529       H  0.19611448  0.86424624  0.49108933     0.26900
H2530       H  0.11591307  0.93166765  0.54883862     0.21700
H2531       H  0.04953698  0.93337896  0.46040590     0.27100
H2532       H  0.08036498  0.86514886  0.51604172     0.15900
loop_ 
_geom_bond_atom_site_label_1 
_geom_bond_atom_site_label_2 
_geom_bond_distance 
_geom_bond_site_symmetry_2 
_ccdc_geom_bond_type 
C1            C2   1.406       .  A
C1            C6   1.407       .  A
C1         C2465   1.486       .  S
C2            C3   1.403       .  A
C2            H7   1.084       .  S
C3            C4   1.402       .  A
C3         C2513   1.485       .  S
C4            C5   1.402       .  A
C4            H8   1.084       .  S
C5            C6   1.407       .  A
C5         C2489   1.484       .  S
C6            H9   1.084       .  S
C10          C11   1.408       .  A
C10          C15   1.405       .  A
C10        C2402   1.485       .  S
C11          C12   1.408       .  A
C11          H16   1.083       .  S
C12          C13   1.402       .  A
C12        C2426   1.484       .  S
C13          C14   1.400       .  A
C13          H17   1.084       .  S
C14          C15   1.402       .  A
C14        C2450   1.480       .  S
C15          H18   1.084       .  S
C19          C20   1.405       .  A
C19          C24   1.403       .  A
C19        C2345   1.481       .  S
C20          C21   1.408       .  A
C20          H25   1.084       .  S
C21          C22   1.405       .  A
C21        C2321   1.489       .  S
C22          C23   1.404       .  A
C22          H26   1.083       .  S
C23          C24   1.400       .  A
C23        C2369   1.483       .  S
C24          H27   1.084       .  S
C28          C29   1.408       .  A
C28          C33   1.402       .  A
C28        C2249   1.484       .  S
C29          C30   1.407       .  A
C29          H34   1.083       .  S
C30          C31   1.405       .  A
C30        C2282   1.485       .  S
C31          C32   1.402       .  A
C31          H35   1.084       .  S
C32          C33   1.400       .  A
C32        C2306   1.482       .  S
C33          H36   1.084       .  S
C37          C38   1.403       .  A
C37          C42   1.407       .  A
C37        C2186   1.480       .  S
C38          C39   1.398       .  A
C38          H43   1.084       .  S
C39          C40   1.399       .  A
C39        C2234   1.474       .  S
C40          C41   1.403       .  A
C40          H44   1.084       .  S
C41          C42   1.408       .  A
C41        C2210   1.485       .  S
C42          H45   1.083       .  S
C46          C47   1.406       .  A
C46          C51   1.409       .  A
C46        C2129   1.488       .  S
C47          C48   1.400       .  A
C47          H52   1.084       .  S
C48          C49   1.398       .  A
C48        C2153   1.475       .  S
C49          C50   1.403       .  A
C49          H53   1.084       .  S
C50          C51   1.407       .  A
C50        C2105   1.482       .  S
C51          H54   1.083       .  S
C55          C56   1.402       .  A
C55          C60   1.400       .  A
C55        C2033   1.477       .  S
C56          C57   1.406       .  A
C56          H61   1.083       .  S
C57          C58   1.405       .  A
C57        C2066   1.485       .  S
C58          C59   1.407       .  A
C58          H62   1.081       .  S
C59          C60   1.407       .  A
C59        C2090   1.499       .  S
C60          H63   1.083       .  S
C64          C65   1.403       .  A
C64          C69   1.406       .  A
C64        C1961   1.482       .  S
C65          C66   1.399       .  A
C65          H70   1.084       .  S
C66          C67   1.400       .  A
C66        C2009   1.480       .  S
C67          C68   1.404       .  A
C67          H71   1.084       .  S
C68          C69   1.406       .  A
C68        C1994   1.483       .  S
C69          H72   1.084       .  S
C73          C74   1.404       .  A
C73          C78   1.408       .  A
C73        C1889   1.482       .  S
C74          C75   1.400       .  A
C74          H79   1.084       .  S
C75          C76   1.399       .  A
C75        C1946   1.474       .  S
C76          C77   1.404       .  A
C76          H80   1.084       .  S
C77          C78   1.408       .  A
C77        C1913   1.485       .  S
C78          H81   1.084       .  S
C82          C83   1.404       .  A
C82          C87   1.408       .  A
C82        C1874   1.487       .  S
C83          C84   1.400       .  A
C83          H88   1.084       .  S
C84          C85   1.401       .  A
C84        C1826   1.480       .  S
C85          C86   1.403       .  A
C85          H89   1.084   1_455  S
C86          C87   1.406       .  A
C86        C1841   1.479   1_455  S
C87          H90   1.083       .  S
O91         Mg93   2.142       .  S
O91         Mg99   2.148       .  S
O91         C126   1.237       .  S
C92         H131   1.081       .  S
C92         O105   1.237       .  S
C92         O129   1.271       .  A
Mg93        O122   2.151       .  S
Mg93        O137   2.308       .  S
Mg93        O133   2.279       .  S
Mg93        O104   2.296       .  S
O94        Mg136   2.148       .  S
O94        Mg119   2.144       .  S
O94         C115   1.237       .  S
O95         C126   1.271       .  A
O95        Mg119   2.300       .  S
C96        C1745   1.486       .  S
C96          O98   1.272       .  A
C96         O110   1.277       .  A
O97         C125   1.271       .  A
O97         Mg99   2.296       .  S
O98        Mg130   2.263       .  S
Mg99        O105   2.148       .  S
Mg99        O113   2.276       .  S
Mg99        O101   2.306       .  S
C100       C1865   1.478       .  S
C100        O138   1.271       .  A
C100        O106   1.277       .  A
O101        C108   1.275       .  A
H102        C115   1.081       .  S
C103        H128   1.081       .  S
C103        O117   1.237       .  S
C103        O118   1.271       .  A
O104        C127   1.270       .  A
O105       Mg119   2.149       .  S
O106       Mg136   2.317       .  S
C107       C1697   1.485       .  S
C107        O120   1.274       .  A
C107        O112   1.277       .  A
C108       C1793   1.488       .  S
C108        O135   1.274       .  A
Mg109       O116   2.133       .  S
Mg109       O117   2.150       .  S
Mg109       O110   2.319       .  S
Mg109       O111   2.304       .  S
Mg109       O138   2.251       .  S
O111        C115   1.272       .  A
O112       Mg119   2.320       .  S
O113        C132   1.274       .  A
O114        C134   1.273       .  A
O114       Mg130   2.301       .  S
O116       Mg130   2.148       .  S
O116        C127   1.237       .  S
O117       Mg136   2.148       .  S
O118       Mg130   2.301       .  S
Mg119       O135   2.273       .  S
O120       Mg136   2.276       .  S
H121        C126   1.081       .  S
O122       Mg130   2.131       .  S
O122        C125   1.237       .  S
H123        C125   1.081       .  S
H124        C127   1.081       .  S
O129       Mg136   2.303       .  S
C132       C1721   1.482       .  S
C132        O137   1.276       .  A
O133        C134   1.274       .  A
C134       C1769   1.494       .  S
C139        C140   1.402       .  A
C139        C144   1.405   1_545  A
C139       C1802   1.480       .  S
C140        C141   1.400   1_545  A
C140        H145   1.084       .  S
C141        C142   1.401       .  A
C141       C1658   1.479       .  S
C142        C143   1.406       .  A
C142        H146   1.084       .  S
C143        C144   1.407       .  A
C143       C1682   1.484       .  S
C144        H147   1.084       .  S
O148       Mg150   2.134       .  S
O148       Mg156   2.143       .  S
O148        C183   1.238       .  S
C149        H188   1.081       .  S
C149        O162   1.238       .  S
C149        O186   1.271       .  A
Mg150       O179   2.147       .  S
Mg150       O194   2.314       .  S
Mg150       O190   2.258       .  S
Mg150       O161   2.305       .  S
O151       Mg193   2.148       .  S
O151       Mg176   2.139       .  S
O151        C172   1.237       .  S
O152        C183   1.271       .  A
O152       Mg176   2.297       .  S
C153       C2498   1.479       .  S
C153        O155   1.273       .  A
C153        O167   1.275       .  A
O154        C182   1.272       .  A
O154       Mg156   2.304       .  S
O155       Mg187   2.273       .  S
Mg156       O162   2.135       .  S
Mg156       O170   2.267       .  S
Mg156       O158   2.306       .  S
C157       C1634   1.481       .  S
C157        O195   1.272       .  A
C157        O163   1.278       .  A
O158        C165   1.275       .  A
H159        C172   1.081       .  S
C160        H185   1.081       .  S
C160        O174   1.237       .  S
C160        O175   1.272       .  A
O161        C184   1.272       .  A
O162       Mg176   2.146       .  S
O163       Mg193   2.326       .  S
C164       C1577   1.481       .  S
C164        O177   1.275       .  A
C164        O169   1.275       .  A
C165       C1610   1.482       .  S
C165        O192   1.273       .  A
Mg166       O173   2.145       .  S
Mg166       O174   2.147       .  S
Mg166       O167   2.304       .  S
Mg166       O168   2.298       .  S
Mg166       O195   2.265       .  S
O168        C172   1.271       .  A
O169       Mg176   2.297       .  S
O170        C189   1.272       .  A
O171        C191   1.276       .  A
O171       Mg187   2.316       .  S
O173       Mg187   2.146       .  S
O173        C184   1.237       .  S
O174       Mg193   2.146       .  S
O175       Mg187   2.305       .  S
Mg176       O192   2.271       .  S
O177       Mg193   2.284       .  S
H178        C183   1.081       .  S
O179       Mg187   2.146       .  S
O179        C182   1.238       .  S
H180        C182   1.081       .  S
H181        C184   1.081       .  S
O186       Mg193   2.300       .  S
C189       C2273   1.480       .  S
C189        O194   1.276       .  A
O190        C191   1.271       .  A
C191       C1673   1.480       .  S
O196       Mg198   2.143       .  S
O196       Mg204   2.151       .  S
O196        C231   1.238       .  S
C197        H236   1.081       .  S
C197        O210   1.237       .  S
C197        O234   1.272       .  A
Mg198       O227   2.144       .  S
Mg198       O242   2.306       .  S
Mg198       O238   2.266       .  S
Mg198       O209   2.300       .  S
O199       Mg241   2.148       .  S
O199       Mg224   2.142       .  S
O199        C220   1.237       .  S
O200        C231   1.272       .  A
O200       Mg224   2.304       .  S
C201       C1505   1.480       .  S
C201        O203   1.273       .  A
C201        O215   1.275       .  A
O202        C230   1.271       .  A
O202       Mg204   2.299       .  S
O203       Mg235   2.265       .  S
Mg204       O210   2.141       .  S
Mg204       O218   2.264       .  S
Mg204       O206   2.308       .  S
C205       C1562   1.485       .  S
C205        O243   1.273       .  A
C205        O211   1.277       .  A
O206        C213   1.275       .  A
H207        C220   1.081       .  S
C208        H233   1.081       .  S
C208        O222   1.238       .  S
C208        O223   1.271       .  A
O209        C232   1.271       .  A
O210       Mg224   2.144       .  S
O211       Mg241   2.320       .  S
C212       C2417   1.477       .  S
C212        O225   1.273       .  A
C212        O217   1.277       .  A
C213       C1850   1.490       .  S
C213        O240   1.274       .  A
Mg214       O221   2.142       .  S
Mg214       O222   2.151       .  S
Mg214       O215   2.303       .  S
Mg214       O216   2.296       .  S
Mg214       O243   2.269       .  S
O216        C220   1.271       .  A
O217       Mg224   2.315       .  S
O218        C237   1.272       .  A
O219        C239   1.278       .  A
O219       Mg235   2.317       .  S
O221       Mg235   2.151       .  S
O221        C232   1.237       .  S
O222       Mg241   2.137       .  S
O223       Mg235   2.297       .  S
Mg224       O240   2.278       .  S
O225       Mg241   2.264       .  S
H226        C231   1.081       .  S
O227       Mg235   2.135       .  S
O227        C230   1.237       .  S
H228        C230   1.081       .  S
H229        C232   1.081       .  S
O234       Mg241   2.304       .  S
C237       C2177   1.478       .  S
C237        O242   1.275       .  A
O238        C239   1.272       .  A
C239       C1538   1.488       .  S
C244        C245   1.407   1_545  A
C244        C249   1.405       .  A
C244       C1553   1.485       .  S
C245        C246   1.407       .  A
C245        H250   1.084       .  S
C246        C247   1.404       .  A
C246       C1490   1.484       .  S
C247        C248   1.402       .  A
C247        H251   1.084       .  S
C248        C249   1.403   1_565  A
C248       C1457   1.484       .  S
C249        H252   1.084       .  S
O253       Mg255   2.146       .  S
O253       Mg261   2.150       .  S
O253        C288   1.237       .  S
C254        H293   1.081       .  S
C254        O267   1.238       .  S
C254        O291   1.272       .  A
Mg255       O284   2.149       .  S
Mg255       O299   2.309       .  S
Mg255       O295   2.271       .  S
Mg255       O266   2.300       .  S
O256       Mg298   2.147       .  S
O256       Mg281   2.136       .  S
O256        C277   1.237       .  S
O257        C288   1.272       .  A
O257       Mg281   2.303       .  S
C258       C1433   1.484       .  S
C258        O260   1.273       .  A
C258        O272   1.277       .  A
O259        C287   1.271       .  A
O259       Mg261   2.301       .  S
O260       Mg292   2.268       .  S
Mg261       O267   2.149       .  S
Mg261       O275   2.268       .  S
Mg261       O263   2.310       .  S
C262       C2201   1.491       .  S
C262        O300   1.273       .  A
C262        O268   1.278       .  A
O263        C270   1.275       .  A
H264        C277   1.081       .  S
C265        H290   1.081       .  S
C265        O279   1.237       .  S
C265        O280   1.271       .  A
O266        C289   1.271       .  A
O267       Mg281   2.149       .  S
O268       Mg298   2.320       .  S
C269       C1409   1.485       .  S
C269        O282   1.274       .  A
C269        O274   1.276       .  A
C270       C2258   1.479       .  S
C270        O297   1.272       .  A
Mg271       O278   2.148       .  S
Mg271       O279   2.149       .  S
Mg271       O272   2.314       .  S
Mg271       O273   2.300       .  S
Mg271       O300   2.274       .  S
O273        C277   1.271       .  A
O274       Mg281   2.309       .  S
O275        C294   1.272       .  A
O276        C296   1.277       .  A
O276       Mg292   2.318       .  S
O278       Mg292   2.152       .  S
O278        C289   1.237       .  S
O279       Mg298   2.140       .  S
O280       Mg292   2.299       .  S
Mg281       O297   2.265       .  S
O282       Mg298   2.274       .  S
H283        C288   1.081       .  S
O284       Mg292   2.141       .  S
O284        C287   1.237       .  S
H285        C287   1.081       .  S
H286        C289   1.081       .  S
O291       Mg298   2.304       .  S
C294       C1481   1.480       .  S
C294        O299   1.276       .  A
O295        C296   1.273       .  A
C296       C2330   1.484       .  S
C301        C302   1.403       .  A
C301        C306   1.411       .  A
C301       C1625   1.489       .  S
C302        C303   1.399       .  A
C302        H307   1.084       .  S
C303        C304   1.401   1_455  A
C303       C1394   1.481       .  S
C304        C305   1.406       .  A
C304        H308   1.084       .  S
C305        C306   1.411   1_655  A
C305       C1442   1.489       .  S
C306        H309   1.083       .  S
C310        C311   1.403       .  A
C310        C315   1.405   1_554  A
C310       C1778   1.481       .  S
C311        C312   1.402   1_554  A
C311        H316   1.084       .  S
C312        C313   1.403       .  A
C312       C1346   1.483       .  S
C313        C314   1.405       .  A
C313        H317   1.084       .  S
C314        C315   1.408       .  A
C314       C1361   1.486       .  S
C315        H318   1.083       .  S
O319       Mg321   2.136       .  S
O319       Mg327   2.151       .  S
O319        C354   1.236       .  S
C320        H359   1.081       .  S
C320        O333   1.237       .  S
C320        O357   1.271       .  A
Mg321       O350   2.151       .  S
Mg321       O365   2.295       .  S
Mg321       O361   2.255       .  S
Mg321       O332   2.296       .  S
O322       Mg364   2.151       .  S
O322       Mg347   2.145       .  S
O322        C343   1.237       .  S
O323        C354   1.270       .  A
O323       Mg347   2.297       .  S
C324       C1298   1.488       .  S
C324        O326   1.273       .  A
C324        O338   1.276       .  A
O325        C353   1.271       .  A
O325       Mg327   2.298       .  S
O326       Mg358   2.264       .  S
Mg327       O333   2.138       .  S
Mg327       O341   2.273       .  S
Mg327       O329   2.317       .  S
C328       C1265   1.484       .  S
C328        O366   1.272       .  A
C328        O334   1.276       .  A
O329        C336   1.277       .  A
H330        C343   1.081       .  S
C331        H356   1.081       .  S
C331        O345   1.237       .  S
C331        O346   1.270       .  A
O332        C355   1.270       .  A
O333       Mg347   2.147       .  S
O334       Mg364   2.308       .  S
C335       C1313   1.482       .  S
C335        O348   1.272       .  A
C335        O340   1.275       .  A
C336       C2057   1.485       .  S
C336        O363   1.274       .  A
Mg337       O344   2.132       .  S
Mg337       O345   2.148       .  S
Mg337       O338   2.315       .  S
Mg337       O339   2.301       .  S
Mg337       O366   2.263       .  S
O339        C343   1.271       .  A
O340       Mg347   2.303       .  S
O341        C360   1.273       .  A
O342        C362   1.275       .  A
O342       Mg358   2.306       .  S
O344       Mg358   2.146       .  S
O344        C355   1.237       .  S
O345       Mg364   2.137       .  S
O346       Mg358   2.298       .  S
Mg347       O363   2.275       .  S
O348       Mg364   2.260       .  S
H349        C354   1.081       .  S
O350       Mg358   2.141       .  S
O350        C353   1.237       .  S
H351        C353   1.081       .  S
H352        C355   1.081       .  S
O357       Mg364   2.301       .  S
C360       C1370   1.480       .  S
C360        O365   1.274       .  A
O361        C362   1.271       .  A
C362       C1970   1.476       .  S
C367        C368   1.402       .  A
C367        C372   1.405       .  A
C367       C1322   1.479   1_565  S
C368        C369   1.399       .  A
C368        H373   1.084   1_565  S
C369        C370   1.402       .  A
C369       C1217   1.477       .  S
C370        C371   1.407       .  A
C370        H374   1.084       .  S
C371        C372   1.406       .  A
C371       C1241   1.484       .  S
C372        H375   1.084       .  S
O376       Mg378   2.139       .  S
O376       Mg384   2.146       .  S
O376        C411   1.238       .  S
C377        H416   1.081       .  S
C377        O390   1.238       .  S
C377        O414   1.272       .  A
Mg378       O407   2.144       .  S
Mg378       O422   2.313       .  S
Mg378       O418   2.267       .  S
Mg378       O389   2.303       .  S
O379       Mg421   2.146       .  S
O379       Mg404   2.152       .  S
O379        C400   1.238       .  S
O380        C411   1.272       .  A
O380       Mg404   2.303       .  S
C381       C1898   1.488       .  S
C381        O383   1.273       .  A
C381        O395   1.278       .  A
O382        C410   1.271       .  A
O382       Mg384   2.300       .  S
O383       Mg415   2.269       .  S
Mg384       O390   2.144       .  S
Mg384       O398   2.272       .  S
Mg384       O386   2.302       .  S
C385       C1169   1.489       .  S
C385        O423   1.274       .  A
C385        O391   1.277       .  A
O386        C393   1.275       .  A
H387        C400   1.081       .  S
C388        H413   1.081       .  S
C388        O402   1.238       .  S
C388        O403   1.272       .  A
O389        C412   1.272       .  A
O390       Mg404   2.148       .  S
O391       Mg421   2.321       .  S
C392       C1985   1.480       .  S
C392        O405   1.272       .  A
C392        O397   1.278       .  A
C393       C1193   1.483       .  S
C393        O420   1.275       .  A
Mg394       O401   2.142       .  S
Mg394       O402   2.146       .  S
Mg394       O395   2.327       .  S
Mg394       O396   2.305       .  S
Mg394       O423   2.273       .  S
O396        C400   1.272       .  A
O397       Mg404   2.327       .  S
O398        C417   1.272       .  A
O399        C419   1.277       .  A
O399       Mg415   2.318       .  S
O401       Mg415   2.146       .  S
O401        C412   1.238       .  S
O402       Mg421   2.141       .  S
O403       Mg415   2.301       .  S
Mg404       O420   2.290       .  S
O405       Mg421   2.259       .  S
H406        C411   1.081       .  S
O407       Mg415   2.141       .  S
O407        C410   1.237       .  S
H408        C410   1.081       .  S
H409        C412   1.081       .  S
O414       Mg421   2.303       .  S
C417       C2474   1.483       .  S
C417        O422   1.276       .  A
O418        C419   1.272       .  A
C419       C1250   1.480       .  S
C424        C425   1.404       .  A
C424        C429   1.409       .  A
C424       C1202   1.486       .  S
C425        C426   1.400       .  A
C425        H430   1.084       .  S
C426        C427   1.398   1_455  A
C426       C1130   1.475       .  S
C427        C428   1.404       .  A
C427        H431   1.084       .  S
C428        C429   1.408   1_655  A
C428       C1145   1.486       .  S
C429        H432   1.083       .  S
C433        C434   1.408       .  A
C433        C438   1.401       .  A
C433       C1289   1.481       .  S
C434        C435   1.409   1_455  A
C434        H439   1.083       .  S
C435        C436   1.404       .  A
C435       C1097   1.483       .  S
C436        C437   1.398   1_655  A
C436        H440   1.084       .  S
C437        C438   1.397       .  A
C437       C1073   1.474       .  S
C438        H441   1.085       .  S
O442       Mg444   2.145       .  S
O442       Mg450   2.146       .  S
O442        C477   1.238       .  S
C443        H482   1.081       .  S
C443        O456   1.237       .  S
C443        O480   1.272       .  A
Mg444       O473   2.151       .  S
Mg444       O488   2.331       .  S
Mg444       O484   2.271       .  S
Mg444       O455   2.301       .  S
O445       Mg487   2.148       .  S
O445       Mg470   2.132       .  S
O445        C466   1.237       .  S
O446        C477   1.273       .  A
O446       Mg470   2.305       .  S
C447       C2393   1.480       .  S
C447        O449   1.274       .  A
C447        O461   1.276       .  A
O448        C476   1.271       .  A
O448       Mg450   2.302       .  S
O449       Mg481   2.280       .  S
Mg450       O456   2.147       .  S
Mg450       O464   2.267       .  S
Mg450       O452   2.309       .  S
C451       C1049   1.488       .  S
C451        O489   1.273       .  A
C451        O457   1.277       .  A
O452        C459   1.275       .  A
H453        C466   1.081       .  S
C454        H479   1.081       .  S
C454        O468   1.238       .  S
C454        O469   1.272       .  A
O455        C478   1.271       .  A
O456       Mg470   2.146       .  S
O457       Mg487   2.319       .  S
C458       C2042   1.485       .  S
C458        O471   1.273       .  A
C458        O463   1.277       .  A
C459       C1025   1.476       .  S
C459        O486   1.271       .  A
Mg460       O467   2.145       .  S
Mg460       O468   2.148       .  S
Mg460       O461   2.314       .  S
Mg460       O462   2.296       .  S
Mg460       O489   2.272       .  S
O462        C466   1.271       .  A
O463       Mg470   2.316       .  S
O464        C483   1.272       .  A
O465        C485   1.275       .  A
O465       Mg481   2.311       .  S
O467       Mg481   2.145       .  S
O467        C478   1.237       .  S
O468       Mg487   2.139       .  S
O469       Mg481   2.300       .  S
Mg470       O486   2.257       .  S
O471       Mg487   2.271       .  S
H472        C477   1.081       .  S
O473       Mg481   2.147       .  S
O473        C476   1.237       .  S
H474        C476   1.081       .  S
H475        C478   1.081       .  S
O480       Mg487   2.304       .  S
C483       C2138   1.486       .  S
C483        O488   1.278       .  A
O484        C485   1.275       .  A
C485       C1106   1.490       .  S
C490        C491   1.410   1_545  A
C490        C495   1.406       .  A
C490       C1058   1.486       .  S
C491        C492   1.410       .  A
C491        H496   1.083       .  S
C492        C493   1.403       .  A
C492       C1010   1.488       .  S
C493        C494   1.399       .  A
C493        H497   1.084       .  S
C494        C495   1.401   1_565  A
C494        C977   1.479       .  S
C495        H498   1.084       .  S
O499       Mg501   2.141       .  S
O499       Mg507   2.148       .  S
O499        C534   1.238       .  S
C500        H539   1.081       .  S
C500        O513   1.237       .  S
C500        O537   1.271       .  A
Mg501       O530   2.145       .  S
Mg501       O545   2.304       .  S
Mg501       O541   2.267       .  S
Mg501       O512   2.302       .  S
O502       Mg544   2.145       .  S
O502       Mg527   2.140       .  S
O502        C523   1.237       .  S
O503        C534   1.272       .  A
O503       Mg527   2.301       .  S
C504       C2114   1.480       .  S
C504        O506   1.271       .  A
C504        O518   1.276       .  A
O505        C533   1.271       .  A
O505       Mg507   2.298       .  S
O506       Mg538   2.260       .  S
Mg507       O513   2.139       .  S
Mg507       O521   2.274       .  S
Mg507       O509   2.324       .  S
C508        C962   1.480       .  S
C508        O546   1.273       .  A
C508        O514   1.276       .  A
O509        C516   1.278       .  A
H510        C523   1.081       .  S
C511        H536   1.081       .  S
C511        O525   1.237       .  S
C511        O526   1.271       .  A
O512        C535   1.272       .  A
O513       Mg527   2.141       .  S
O514       Mg544   2.312       .  S
C515       C1922   1.483       .  S
C515        O528   1.273       .  A
C515        O520   1.278       .  A
C516       C1001   1.483       .  S
C516        O543   1.273       .  A
Mg517       O524   2.140       .  S
Mg517       O525   2.148       .  S
Mg517       O518   2.314       .  S
Mg517       O519   2.301       .  S
Mg517       O546   2.264       .  S
O519        C523   1.271       .  A
O520       Mg527   2.323       .  S
O521        C540   1.274       .  A
O522        C542   1.276       .  A
O522       Mg538   2.310       .  S
O524       Mg538   2.147       .  S
O524        C535   1.238       .  S
O525       Mg544   2.143       .  S
O526       Mg538   2.302       .  S
Mg527       O543   2.267       .  S
O528       Mg544   2.271       .  S
H529        C534   1.081       .  S
O530       Mg538   2.134       .  S
O530        C533   1.238       .  S
H531        C533   1.081       .  S
H532        C535   1.081       .  S
O537       Mg544   2.299       .  S
C540       C2354   1.485       .  S
C540        O545   1.275       .  A
O541        C542   1.271       .  A
C542       C1154   1.492       .  S
C547        C548   1.402       .  A
C547        C552   1.408       .  A
C547       C1601   1.485       .  S
C548        C549   1.400       .  A
C548        H553   1.084       .  S
C549        C550   1.401   1_554  A
C549        C929   1.480       .  S
C550        C551   1.402       .  A
C550        H554   1.084       .  S
C551        C552   1.407   1_556  A
C551       C1178   1.480       .  S
C552        H555   1.083       .  S
C556        C557   1.406       .  A
C556        C561   1.404       .  A
C556       C1529   1.481       .  S
C557        C558   1.406   1_554  A
C557        H562   1.083       .  S
C558        C559   1.402       .  A
C558       C1034   1.481       .  S
C559        C560   1.399   1_556  A
C559        H563   1.084       .  S
C560        C561   1.401       .  A
C560        C914   1.477       .  S
C561        H564   1.084       .  S
C565        C566   1.401       .  A
C565        C570   1.406   1_554  A
C565       C1418   1.479       .  S
C566        C567   1.397       .  A
C566        H571   1.084       .  S
C567        C568   1.399   1_554  A
C567        C890   1.473       .  S
C568        C569   1.405       .  A
C568        H572   1.084       .  S
C569        C570   1.408       .  A
C569        C953   1.486       .  S
C570        H573   1.084       .  S
C574        C575   1.405       .  A
C574        C579   1.402       .  A
C574       C1514   1.480       .  S
C575        C576   1.408       .  A
C575        H580   1.084       .  S
C576        C577   1.407       .  A
C576       C1730   1.488       .  S
C577        C578   1.402       .  A
C577        H581   1.084       .  S
C578        C579   1.400       .  A
C578        C857   1.479       .  S
C579        H582   1.084       .  S
C583        C584   1.408       .  A
C583        C588   1.402       .  A
C583       C1754   1.482       .  S
C584        C585   1.409       .  A
C584        H589   1.083       .  S
C585        C586   1.405       .  A
C585       C1586   1.486       .  S
C586        C587   1.401       .  A
C586        H590   1.084       .  S
C587        C588   1.399       .  A
C587        C842   1.477       .  S
C588        H591   1.084       .  S
C592        C593   1.407       .  A
C592        C597   1.401       .  A
C592       C1274   1.478       .  S
C593        C594   1.409       .  A
C593        H598   1.083       .  S
C594        C595   1.405       .  A
C594       C1706   1.485       .  S
C595        C596   1.399       .  A
C595        H599   1.084       .  S
C596        C597   1.398       .  A
C596        C818   1.475       .  S
C597        H600   1.084       .  S
N601        C606   1.353   1_455  A
N601        C605   1.353       .  A
N601        H633   1.039       .  S
N602        C609   1.350       .  A
N602        C610   1.351   1_565  A
N603        C608   1.351   1_455  A
N603        C607   1.351       .  A
N603        H634   1.039       .  S
N604        C611   1.350       .  A
N604        C612   1.351   1_565  A
C605        C613   1.387       .  A
C605        C621   1.416       .  A
C606        C622   1.416       .  A
C606        C614   1.387   1_655  A
C607        C615   1.387       .  A
C607        C624   1.411       .  A
C608        C623   1.410       .  A
C608        C616   1.386   1_655  A
C609        C621   1.413       .  A
C609        C617   1.386       .  A
C610        C624   1.412       .  A
C610        C618   1.386   1_545  A
C611        C619   1.387       .  A
C611        C622   1.412       .  A
C612        C620   1.385   1_545  A
C612        C623   1.411       .  A
C613        C614   1.377       .  A
C613        H625   1.082       .  S
C614        H626   1.082   1_455  S
C615        C616   1.375       .  A
C615        H627   1.082       .  S
C616        H628   1.082   1_455  S
C617        C618   1.373       .  A
C617        H629   1.082       .  S
C618        H630   1.082   1_565  S
C619        C620   1.373       .  A
C619        H631   1.082       .  S
C620        H632   1.082   1_565  S
C621       C2522   1.488       .  S
C622       C2378   1.487       .  S
C623       C2441   1.482       .  S
C624        C809   1.485       .  S
N635        C640   1.352       .  A
N635        C639   1.354       .  A
N635        H667   1.040       .  S
N636        C643   1.348       .  A
N636        C644   1.349   1_554  A
N637        C642   1.350       .  A
N637        C641   1.352   1_565  A
N637        H668   1.041       .  S
N638        C645   1.350   1_556  A
N638        C646   1.351       .  A
C639        C647   1.387       .  A
C639        C655   1.414   1_565  A
C640        C656   1.414       .  A
C640        C648   1.387       .  A
C641        C649   1.388   1_545  A
C641        C658   1.415       .  A
C642        C657   1.408       .  A
C642        C650   1.385       .  A
C643        C655   1.409       .  A
C643        C651   1.385       .  A
C644        C658   1.413       .  A
C644        C652   1.387       .  A
C645        C653   1.386       .  A
C645        C656   1.412       .  A
C646        C654   1.386       .  A
C646        C657   1.411       .  A
C647        C648   1.376       .  A
C647        H659   1.082   1_565  S
C648        H660   1.082       .  S
C649        C650   1.376       .  A
C649        H661   1.082   1_565  S
C650        H662   1.082       .  S
C651        C652   1.375   1_554  A
C651        H663   1.082       .  S
C652        H664   1.082       .  S
C653        C654   1.375   1_554  A
C653        H665   1.082       .  S
C654        H666   1.082       .  S
C655        C866   1.487       .  S
C656       C2297   1.487       .  S
C657       C1937   1.483       .  S
C658       C2081   1.494       .  S
N669        C674   1.352       .  A
N669        C673   1.352       .  A
N669        H701   1.036       .  S
N670        C677   1.350       .  A
N670        C678   1.350   1_554  A
N671        C676   1.352       .  A
N671        C675   1.353       .  A
N671        H702   1.037       .  S
N672        C679   1.351       .  A
N672        C680   1.351   1_554  A
C673        C681   1.387       .  A
C673        C689   1.414   1_455  A
C674        C690   1.415       .  A
C674        C682   1.387       .  A
C675        C683   1.387       .  A
C675        C692   1.414   1_455  A
C676        C691   1.415       .  A
C676        C684   1.387       .  A
C677        C689   1.412       .  A
C677        C685   1.387       .  A
C678        C692   1.411       .  A
C678        C686   1.387       .  A
C679        C687   1.386       .  A
C679        C690   1.413       .  A
C680        C688   1.386       .  A
C680        C691   1.413       .  A
C681        C682   1.375       .  A
C681        H693   1.082   1_455  S
C682        H694   1.082       .  S
C683        C684   1.374       .  A
C683        H695   1.082   1_455  S
C684        H696   1.082       .  S
C685        C686   1.370   1_554  A
C685        H697   1.082       .  S
C686        H698   1.082       .  S
C687        C688   1.372   1_554  A
C687        H699   1.082       .  S
C688        H700   1.082       .  S
C689       C2225   1.480       .  S
C690        C833   1.484       .  S
C691       C2018   1.484       .  S
C692       C2162   1.483       .  S
N703        C708   1.352       .  A
N703        C707   1.352   1_554  A
N703        H735   1.038       .  S
N704        C711   1.348       .  A
N704        C712   1.349       .  A
N705        C710   1.351   1_554  A
N705        C709   1.352   1_554  A
N705        H736   1.039       .  S
N706        C713   1.350       .  A
N706        C714   1.350       .  A
C707        C715   1.386       .  A
C707        C723   1.412   1_556  A
C708        C724   1.414       .  A
C708        C716   1.388   1_554  A
C709        C717   1.387       .  A
C709        C726   1.412   1_556  A
C710        C725   1.412   1_556  A
C710        C718   1.387       .  A
C711        C723   1.408       .  A
C711        C719   1.386       .  A
C712        C726   1.408       .  A
C712        C720   1.386       .  A
C713        C721   1.386       .  A
C713        C724   1.412       .  A
C714        C722   1.386       .  A
C714        C725   1.411       .  A
C715        C716   1.373       .  A
C715        H727   1.082       .  S
C716        H728   1.082       .  S
C717        C718   1.374       .  A
C717        H729   1.082       .  S
C718        H730   1.082       .  S
C719        C720   1.372       .  A
C719        H731   1.082       .  S
C720        H732   1.082       .  S
C721        C722   1.373       .  A
C721        H733   1.082       .  S
C722        H734   1.083       .  S
C723        C905   1.479       .  S
C724        C881   1.482       .  S
C725        C938   1.480       .  S
C726       C1337   1.482       .  S
N737        C742   1.352       .  A
N737        C741   1.352       .  A
N737        H769   1.038       .  S
N738        C745   1.351       .  A
N738        C746   1.351       .  A
N739        C744   1.352       .  A
N739        C743   1.352       .  A
N739        H770   1.037       .  S
N740        C747   1.350       .  A
N740        C748   1.350       .  A
C741        C749   1.386       .  A
C741        C757   1.413       .  A
C742        C758   1.415       .  A
C742        C750   1.387       .  A
C743        C751   1.387       .  A
C743        C760   1.413       .  A
C744        C759   1.413       .  A
C744        C752   1.387       .  A
C745        C757   1.412       .  A
C745        C753   1.386       .  A
C746        C760   1.413       .  A
C746        C754   1.386       .  A
C747        C755   1.386       .  A
C747        C758   1.412       .  A
C748        C756   1.386       .  A
C748        C759   1.411       .  A
C749        C750   1.375       .  A
C749        H761   1.082       .  S
C750        H762   1.082       .  S
C751        C752   1.375       .  A
C751        H763   1.082       .  S
C752        H764   1.082       .  S
C753        C754   1.372       .  A
C753        H765   1.082       .  S
C754        H766   1.082       .  S
C755        C756   1.371       .  A
C755        H767   1.082       .  S
C756        H768   1.082       .  S
C757       C1385   1.483       .  S
C758       C1121   1.485       .  S
C759       C1082   1.482       .  S
C760       C1817   1.484       .  S
N771        C776   1.355       .  A
N771        C775   1.355       .  A
N771        H803   1.027       .  S
N772        C779   1.351       .  A
N772        C780   1.352       .  A
N773        C778   1.354       .  A
N773        C777   1.354       .  A
N773        H804   1.026       .  S
N774        C781   1.352       .  A
N774        C782   1.351       .  A
C775        C783   1.387       .  A
C775        C791   1.417       .  A
C776        C792   1.416       .  A
C776        C784   1.386       .  A
C777        C785   1.387       .  A
C777        C794   1.414       .  A
C778        C793   1.413       .  A
C778        C786   1.387       .  A
C779        C791   1.413       .  A
C779        C787   1.387       .  A
C780        C794   1.412       .  A
C780        C788   1.385       .  A
C781        C789   1.387       .  A
C781        C792   1.414       .  A
C782        C790   1.386       .  A
C782        C793   1.412       .  A
C783        C784   1.377       .  A
C783        H795   1.082       .  S
C784        H796   1.083       .  S
C785        C786   1.375       .  A
C785        H797   1.083       .  S
C786        H798   1.083       .  S
C787        C788   1.372       .  A
C787        H799   1.082       .  S
C788        H800   1.082       .  S
C789        C790   1.372       .  A
C789        H801   1.082       .  S
C790        H802   1.082       .  S
C791        C986   1.489       .  S
C792       C1466   1.490       .  S
C793       C1649   1.483       .  S
C794       C1226   1.488       .  S
C805        C806   1.401       .  A
C805        C810   1.398       .  A
C805        H815   1.084       .  S
C806        C807   1.411       .  A
C806        C811   1.475       .  S
C807        C808   1.397       .  A
C807        S812   1.804       .  S
C808        C809   1.403       .  A
C808        H813   1.084       .  S
C809        C810   1.414       .  A
C810        S814   1.805       .  S
C811        C816   1.409       .  A
C811        C820   1.400       .  A
S812        H828   1.405       .  S
S814        H825   1.405       .  S
C816        C817   1.403       .  A
C816        S821   1.807       .  S
C817        C818   1.403       .  A
C817        H822   1.083       .  S
C818        C819   1.413       .  A
C819        C820   1.397       .  A
C819        S823   1.804       .  S
C820        H824   1.084       .  S
S821        H826   1.407       .  S
S823        H827   1.406       .  S
C829        C830   1.402       .  A
C829        C834   1.398       .  A
C829        H839   1.084       .  S
C830        C831   1.414       .  A
C830        C835   1.479       .  S
C831        C832   1.399       .  A
C831        S836   1.805       .  S
C832        C833   1.402       .  A
C832        H837   1.084       .  S
C833        C834   1.412       .  A
C834        S838   1.804       .  S
C835        C840   1.410       .  A
C835        C844   1.402       .  A
S836        H852   1.405       .  S
S838        H849   1.404       .  S
C840        C841   1.404       .  A
C840        S845   1.806       .  S
C841        C842   1.403       .  A
C841        H846   1.083       .  S
C842        C843   1.412       .  A
C843        C844   1.399       .  A
C843        S847   1.804       .  S
C844        H848   1.084       .  S
S845        H850   1.407       .  S
S847        H851   1.406       .  S
C853        C854   1.403       .  A
C853        C858   1.400       .  A
C853        H863   1.084       .  S
C854        C855   1.412       .  A
C854        C859   1.479       .  S
C855        C856   1.399       .  A
C855        S860   1.804       .  S
C856        C857   1.404       .  A
C856        H861   1.084       .  S
C857        C858   1.413       .  A
C858        S862   1.804       .  S
C859        C864   1.409       .  A
C859        C868   1.401       .  A
S860        H876   1.405       .  S
S862        H873   1.406       .  S
C864        C865   1.403       .  A
C864        S869   1.806       .  S
C865        C866   1.403       .  A
C865        H870   1.083       .  S
C866        C867   1.415       .  A
C867        C868   1.399       .  A
C867        S871   1.805       .  S
C868        H872   1.084       .  S
S869        H874   1.407       .  S
S871        H875   1.406       .  S
C877        C878   1.402       .  A
C877        C882   1.398       .  A
C877        H887   1.084       .  S
C878        C879   1.412   1_554  A
C878        C883   1.476       .  S
C879        C880   1.396       .  A
C879        S884   1.804       .  S
C880        C881   1.402   1_556  A
C880        H885   1.084       .  S
C881        C882   1.412       .  A
C882        S886   1.804       .  S
C883        C888   1.409   1_554  A
C883        C892   1.402       .  A
S884        H900   1.406       .  S
S886        H897   1.405       .  S
C888        C889   1.400       .  A
C888        S893   1.807       .  S
C889        C890   1.402   1_556  A
C889        H894   1.083       .  S
C890        C891   1.412       .  A
C891        C892   1.399       .  A
C891        S895   1.804       .  S
C892        H896   1.084       .  S
S893        H898   1.407       .  S
S895        H899   1.406       .  S
C901        C902   1.402   1_556  A
C901        C906   1.397       .  A
C901        H911   1.084       .  S
C902        C903   1.412       .  A
C902        C907   1.473       .  S
C903        C904   1.396       .  A
C903        S908   1.805       .  S
C904        C905   1.401       .  A
C904        H909   1.084       .  S
C905        C906   1.412   1_554  A
C906        S910   1.805       .  S
C907        C912   1.408       .  A
C907        C916   1.399   1_554  A
S908        H924   1.404       .  S
S910        H921   1.405       .  S
C912        C913   1.403       .  A
C912        S917   1.806       .  S
C913        C914   1.404       .  A
C913        H918   1.083       .  S
C914        C915   1.414   1_554  A
C915        C916   1.396       .  A
C915        S919   1.804       .  S
C916        H920   1.084       .  S
S917        H922   1.407       .  S
S919        H923   1.406       .  S
C925        C926   1.402   1_556  A
C925        C930   1.399       .  A
C925        H935   1.084       .  S
C926        C927   1.411       .  A
C926        C931   1.474       .  S
C927        C928   1.396       .  A
C927        S932   1.806       .  S
C928        C929   1.404       .  A
C928        H933   1.084       .  S
C929        C930   1.415   1_554  A
C930        S934   1.804       .  S
C931        C936   1.410       .  A
C931        C940   1.401   1_554  A
S932        H948   1.405       .  S
S934        H945   1.406       .  S
C936        C937   1.401       .  A
C936        S941   1.807       .  S
C937        C938   1.402       .  A
C937        H942   1.083       .  S
C938        C939   1.411   1_554  A
C939        C940   1.396       .  A
C939        S943   1.804       .  S
C940        H944   1.084       .  S
S941        H946   1.407       .  S
S943        H947   1.405       .  S
C949        C950   1.401       .  A
C949        C954   1.399       .  A
C949        H959   1.084       .  S
C950        C951   1.413       .  A
C950        C955   1.482       .  S
C951        C952   1.401       .  A
C951        S956   1.804       .  S
C952        C953   1.405       .  A
C952        H957   1.084       .  S
C953        C954   1.417       .  A
C954        S958   1.805       .  S
C955        C960   1.410       .  A
C955        C964   1.402       .  A
S956        H972   1.406       .  S
S958        H969   1.407       .  S
C960        C961   1.403       .  A
C960        S965   1.807       .  S
C961        C962   1.405       .  A
C961        H966   1.083       .  S
C962        C963   1.415       .  A
C963        C964   1.400       .  A
C963        S967   1.803       .  S
C964        H968   1.084       .  S
S965        H970   1.407       .  S
S967        H971   1.407       .  S
C973        C974   1.402       .  A
C973        C978   1.401       .  A
C973        H983   1.084       .  S
C974        C975   1.412       .  A
C974        C979   1.479       .  S
C975        C976   1.399       .  A
C975        S980   1.804       .  S
C976        C977   1.403       .  A
C976        H981   1.084       .  S
C977        C978   1.414       .  A
C978        S982   1.804   1_565  S
C979        C984   1.408   1_565  A
C979        C988   1.402       .  A
S980        H996   1.405       .  S
S982        H993   1.406   1_545  S
C984        C985   1.403   1_545  A
C984        S989   1.806       .  S
C985        C986   1.405       .  A
C985        H990   1.083   1_565  S
C986        C987   1.413       .  A
C987        C988   1.400       .  A
C987        S991   1.804       .  S
C988        H992   1.084       .  S
S989        H994   1.407       .  S
S991        H995   1.405       .  S
C997        C998   1.403       .  A
C997       C1002   1.400       .  A
C997       H1007   1.084       .  S
C998        C999   1.415       .  A
C998       C1003   1.487       .  S
C999       C1000   1.402       .  A
C999       S1004   1.805       .  S
C1000      C1001   1.405       .  A
C1000      H1005   1.084       .  S
C1001      C1002   1.416       .  A
C1002      S1006   1.804       .  S
C1003      C1008   1.411       .  A
C1003      C1012   1.405       .  A
S1004      H1020   1.405       .  S
S1006      H1017   1.407       .  S
C1008      C1009   1.402       .  A
C1008      S1013   1.807       .  S
C1009      C1010   1.406       .  A
C1009      H1014   1.083       .  S
C1010      C1011   1.414       .  A
C1011      C1012   1.403       .  A
C1011      S1015   1.802       .  S
C1012      H1016   1.084       .  S
S1013      H1018   1.407       .  S
S1015      H1019   1.406       .  S
C1021      C1022   1.401       .  A
C1021      C1026   1.397       .  A
C1021      H1031   1.084       .  S
C1022      C1023   1.412       .  A
C1022      C1027   1.478       .  S
C1023      C1024   1.401       .  A
C1023      S1028   1.804       .  S
C1024      C1025   1.405       .  A
C1024      H1029   1.084       .  S
C1025      C1026   1.414       .  A
C1026      S1030   1.804       .  S
C1027      C1032   1.409       .  A
C1027      C1036   1.402       .  A
S1028      H1044   1.406       .  S
S1030      H1041   1.407       .  S
C1032      C1033   1.401       .  A
C1032      S1037   1.807       .  S
C1033      C1034   1.405       .  A
C1033      H1038   1.083       .  S
C1034      C1035   1.414       .  A
C1035      C1036   1.399       .  A
C1035      S1039   1.802       .  S
C1036      H1040   1.084       .  S
S1037      H1042   1.407       .  S
S1039      H1043   1.406       .  S
C1045      C1046   1.402       .  A
C1045      C1050   1.402       .  A
C1045      H1055   1.084       .  S
C1046      C1047   1.412       .  A
C1046      C1051   1.485       .  S
C1047      C1048   1.401       .  A
C1047      S1052   1.804       .  S
C1048      C1049   1.406       .  A
C1048      H1053   1.084       .  S
C1049      C1050   1.418       .  A
C1050      S1054   1.803       .  S
C1051      C1056   1.409       .  A
C1051      C1060   1.403       .  A
S1052      H1068   1.405       .  S
S1054      H1065   1.407       .  S
C1056      C1057   1.404       .  A
C1056      S1061   1.807       .  S
C1057      C1058   1.405       .  A
C1057      H1062   1.083       .  S
C1058      C1059   1.415       .  A
C1059      C1060   1.403       .  A
C1059      S1063   1.803       .  S
C1060      H1064   1.084       .  S
S1061      H1066   1.407       .  S
S1063      H1067   1.406       .  S
C1069      C1070   1.402       .  A
C1069      C1074   1.398       .  A
C1069      H1079   1.084       .  S
C1070      C1071   1.413       .  A
C1070      C1075   1.472       .  S
C1071      C1072   1.397       .  A
C1071      S1076   1.808       .  S
C1072      C1073   1.402       .  A
C1072      H1077   1.084       .  S
C1073      C1074   1.412       .  A
C1074      S1078   1.805       .  S
C1075      C1080   1.408       .  A
C1075      C1084   1.400       .  A
S1076      H1092   1.402   1_455  S
S1078      H1089   1.406       .  S
C1080      C1081   1.401       .  A
C1080      S1085   1.806       .  S
C1081      C1082   1.404       .  A
C1081      H1086   1.083       .  S
C1082      C1083   1.412       .  A
C1083      C1084   1.397       .  A
C1083      S1087   1.804   1_455  S
C1084      H1088   1.084   1_455  S
S1085      H1090   1.407       .  S
S1087      H1091   1.405       .  S
C1093      C1094   1.401       .  A
C1093      C1098   1.399       .  A
C1093      H1103   1.084       .  S
C1094      C1095   1.413       .  A
C1094      C1099   1.480       .  S
C1095      C1096   1.402       .  A
C1095      S1100   1.804       .  S
C1096      C1097   1.404       .  A
C1096      H1101   1.084       .  S
C1097      C1098   1.416       .  A
C1098      S1102   1.805       .  S
C1099      C1104   1.407       .  A
C1099      C1108   1.400       .  A
S1100      H1116   1.405       .  S
S1102      H1113   1.406       .  S
C1104      C1105   1.403       .  A
C1104      S1109   1.806       .  S
C1105      C1106   1.408       .  A
C1105      H1110   1.082       .  S
C1106      C1107   1.419       .  A
C1107      C1108   1.401       .  A
C1107      S1111   1.798       .  S
C1108      H1112   1.084       .  S
S1109      H1114   1.407       .  S
S1111      H1115   1.403       .  S
C1117      C1118   1.401       .  A
C1117      C1122   1.398       .  A
C1117      H1127   1.084       .  S
C1118      C1119   1.412   1_455  A
C1118      C1123   1.475       .  S
C1119      C1120   1.398       .  A
C1119      S1124   1.805       .  S
C1120      C1121   1.403   1_655  A
C1120      H1125   1.084       .  S
C1121      C1122   1.413       .  A
C1122      S1126   1.805       .  S
C1123      C1128   1.408       .  A
C1123      C1132   1.400       .  A
S1124      H1140   1.404       .  S
S1126      H1137   1.405       .  S
C1128      C1129   1.403       .  A
C1128      S1133   1.806   1_455  S
C1129      C1130   1.404       .  A
C1129      H1134   1.083       .  S
C1130      C1131   1.413       .  A
C1131      C1132   1.397       .  A
C1131      S1135   1.803       .  S
C1132      H1136   1.084       .  S
S1133      H1138   1.407       .  S
S1135      H1139   1.406       .  S
C1141      C1142   1.404       .  A
C1141      C1146   1.403       .  A
C1141      H1151   1.084       .  S
C1142      C1143   1.411       .  A
C1142      C1147   1.482       .  S
C1143      C1144   1.398       .  A
C1143      S1148   1.805       .  S
C1144      C1145   1.405       .  A
C1144      H1149   1.084       .  S
C1145      C1146   1.415       .  A
C1146      S1150   1.803       .  S
C1147      C1152   1.408       .  A
C1147      C1156   1.400       .  A
S1148      H1164   1.405       .  S
S1150      H1161   1.406       .  S
C1152      C1153   1.403       .  A
C1152      S1157   1.807       .  S
C1153      C1154   1.409       .  A
C1153      H1158   1.082       .  S
C1154      C1155   1.421       .  A
C1155      C1156   1.401       .  A
C1155      S1159   1.802       .  S
C1156      H1160   1.084       .  S
S1157      H1162   1.407       .  S
S1159      H1163   1.408       .  S
C1165      C1166   1.402       .  A
C1165      C1170   1.401       .  A
C1165      H1175   1.084       .  S
C1166      C1167   1.414       .  A
C1166      C1171   1.487       .  S
C1167      C1168   1.402       .  A
C1167      S1172   1.805       .  S
C1168      C1169   1.406       .  A
C1168      H1173   1.084       .  S
C1169      C1170   1.418       .  A
C1170      S1174   1.803       .  S
C1171      C1176   1.412       .  A
C1171      C1180   1.404       .  A
S1172      H1188   1.406       .  S
S1174      H1185   1.408       .  S
C1176      C1177   1.404       .  A
C1176      S1181   1.807       .  S
C1177      C1178   1.403       .  A
C1177      H1182   1.083       .  S
C1178      C1179   1.413       .  A
C1179      C1180   1.401       .  A
C1179      S1183   1.804       .  S
C1180      H1184   1.084       .  S
S1181      H1186   1.407       .  S
S1183      H1187   1.406       .  S
C1189      C1190   1.402       .  A
C1189      C1194   1.401       .  A
C1189      H1199   1.084       .  S
C1190      C1191   1.414       .  A
C1190      C1195   1.485       .  S
C1191      C1192   1.402       .  A
C1191      S1196   1.805       .  S
C1192      C1193   1.404       .  A
C1192      H1197   1.084       .  S
C1193      C1194   1.417       .  A
C1194      S1198   1.803       .  S
C1195      C1200   1.411       .  A
C1195      C1204   1.402       .  A
S1196      H1212   1.405       .  S
S1198      H1209   1.407       .  S
C1200      C1201   1.405       .  A
C1200      S1205   1.806       .  S
C1201      C1202   1.405       .  A
C1201      H1206   1.083       .  S
C1202      C1203   1.416       .  A
C1203      C1204   1.400       .  A
C1203      S1207   1.804       .  S
C1204      H1208   1.084       .  S
S1205      H1210   1.407       .  S
S1207      H1211   1.407       .  S
C1213      C1214   1.403       .  A
C1213      C1218   1.400       .  A
C1213      H1223   1.084       .  S
C1214      C1215   1.412       .  A
C1214      C1219   1.478       .  S
C1215      C1216   1.399       .  A
C1215      S1220   1.804       .  S
C1216      C1217   1.403       .  A
C1216      H1221   1.084       .  S
C1217      C1218   1.413       .  A
C1218      S1222   1.804       .  S
C1219      C1224   1.409       .  A
C1219      C1228   1.401       .  A
S1220      H1236   1.405   1_565  S
S1222      H1233   1.405       .  S
C1224      C1225   1.402       .  A
C1224      S1229   1.806   1_565  S
C1225      C1226   1.404       .  A
C1225      H1230   1.083   1_565  S
C1226      C1227   1.413       .  A
C1227      C1228   1.399       .  A
C1227      S1231   1.803       .  S
C1228      H1232   1.084       .  S
S1229      H1234   1.407       .  S
S1231      H1235   1.406       .  S
C1237      C1238   1.403       .  A
C1237      C1242   1.399       .  A
C1237      H1247   1.084       .  S
C1238      C1239   1.414       .  A
C1238      C1243   1.485       .  S
C1239      C1240   1.402       .  A
C1239      S1244   1.804       .  S
C1240      C1241   1.405       .  A
C1240      H1245   1.084       .  S
C1241      C1242   1.413       .  A
C1242      S1246   1.804       .  S
C1243      C1248   1.412       .  A
C1243      C1252   1.403       .  A
S1244      H1260   1.406       .  S
S1246      H1257   1.407       .  S
C1248      C1249   1.405       .  A
C1248      S1253   1.808       .  S
C1249      C1250   1.405       .  A
C1249      H1254   1.083       .  S
C1250      C1251   1.414       .  A
C1251      C1252   1.400       .  A
C1251      S1255   1.803       .  S
C1252      H1256   1.084       .  S
S1253      H1258   1.407       .  S
S1255      H1259   1.407       .  S
C1261      C1262   1.402       .  A
C1261      C1266   1.400       .  A
C1261      H1271   1.084       .  S
C1262      C1263   1.412       .  A
C1262      C1267   1.481       .  S
C1263      C1264   1.400       .  A
C1263      S1268   1.804       .  S
C1264      C1265   1.406       .  A
C1264      H1269   1.084       .  S
C1265      C1266   1.417       .  A
C1266      S1270   1.803       .  S
C1267      C1272   1.409       .  A
C1267      C1276   1.404       .  A
S1268      H1284   1.406       .  S
S1270      H1281   1.407       .  S
C1272      C1273   1.401       .  A
C1272      S1277   1.807       .  S
C1273      C1274   1.404       .  A
C1273      H1278   1.083       .  S
C1274      C1275   1.413       .  A
C1275      C1276   1.402       .  A
C1275      S1279   1.804       .  S
C1276      H1280   1.084       .  S
S1277      H1282   1.407       .  S
S1279      H1283   1.406       .  S
C1285      C1286   1.404       .  A
C1285      C1290   1.403       .  A
C1285      H1295   1.084       .  S
C1286      C1287   1.412       .  A
C1286      C1291   1.479       .  S
C1287      C1288   1.397       .  A
C1287      S1292   1.806       .  S
C1288      C1289   1.404       .  A
C1288      H1293   1.084       .  S
C1289      C1290   1.414       .  A
C1290      S1294   1.803       .  S
C1291      C1296   1.407       .  A
C1291      C1300   1.401       .  A
S1292      H1308   1.404       .  S
S1294      H1305   1.406       .  S
C1296      C1297   1.403       .  A
C1296      S1301   1.806       .  S
C1297      C1298   1.409       .  A
C1297      H1302   1.082       .  S
C1298      C1299   1.419       .  A
C1299      C1300   1.400       .  A
C1299      S1303   1.803       .  S
C1300      H1304   1.084       .  S
S1301      H1306   1.407       .  S
S1303      H1307   1.407       .  S
C1309      C1310   1.400       .  A
C1309      C1314   1.397       .  A
C1309      H1319   1.084       .  S
C1310      C1311   1.412       .  A
C1310      C1315   1.478       .  S
C1311      C1312   1.401       .  A
C1311      S1316   1.805       .  S
C1312      C1313   1.407       .  A
C1312      H1317   1.084       .  S
C1313      C1314   1.416       .  A
C1314      S1318   1.803       .  S
C1315      C1320   1.409       .  A
C1315      C1324   1.402       .  A
S1316      H1332   1.405       .  S
S1318      H1329   1.407       .  S
C1320      C1321   1.401       .  A
C1320      S1325   1.807       .  S
C1321      C1322   1.404       .  A
C1321      H1326   1.083       .  S
C1322      C1323   1.414       .  A
C1323      C1324   1.400       .  A
C1323      S1327   1.804       .  S
C1324      H1328   1.084       .  S
S1325      H1330   1.407       .  S
S1327      H1331   1.406       .  S
C1333      C1334   1.402   1_556  A
C1333      C1338   1.398       .  A
C1333      H1343   1.084       .  S
C1334      C1335   1.410       .  A
C1334      C1339   1.474   1_554  S
C1335      C1336   1.397       .  A
C1335      S1340   1.802       .  S
C1336      C1337   1.402       .  A
C1336      H1341   1.084       .  S
C1337      C1338   1.413   1_554  A
C1338      S1342   1.805       .  S
C1339      C1344   1.407       .  A
C1339      C1348   1.399   1_556  A
S1340      H1356   1.404       .  S
S1342      H1353   1.405       .  S
C1344      C1345   1.403       .  A
C1344      S1349   1.806       .  S
C1345      C1346   1.406       .  A
C1345      H1350   1.083       .  S
C1346      C1347   1.416   1_556  A
C1347      C1348   1.397       .  A
C1347      S1351   1.802       .  S
C1348      H1352   1.084       .  S
S1349      H1354   1.407       .  S
S1351      H1355   1.407       .  S
C1357      C1358   1.403       .  A
C1357      C1362   1.403       .  A
C1357      H1367   1.084       .  S
C1358      C1359   1.411       .  A
C1358      C1363   1.480       .  S
C1359      C1360   1.398       .  A
C1359      S1364   1.805       .  S
C1360      C1361   1.405       .  A
C1360      H1365   1.084       .  S
C1361      C1362   1.416       .  A
C1362      S1366   1.803       .  S
C1363      C1368   1.409       .  A
C1363      C1372   1.400       .  A
S1364      H1380   1.405       .  S
S1366      H1377   1.407       .  S
C1368      C1369   1.405       .  A
C1368      S1373   1.805       .  S
C1369      C1370   1.406       .  A
C1369      H1374   1.083       .  S
C1370      C1371   1.416       .  A
C1371      C1372   1.398       .  A
C1371      S1375   1.803       .  S
C1372      H1376   1.084       .  S
S1373      H1378   1.407       .  S
S1375      H1379   1.407       .  S
C1381      C1382   1.402   1_655  A
C1381      C1386   1.399       .  A
C1381      H1391   1.084       .  S
C1382      C1383   1.412       .  A
C1382      C1387   1.478       .  S
C1383      C1384   1.399       .  A
C1383      S1388   1.804       .  S
C1384      C1385   1.402       .  A
C1384      H1389   1.084       .  S
C1385      C1386   1.413   1_455  A
C1386      S1390   1.806       .  S
C1387      C1392   1.409       .  A
C1387      C1396   1.401       .  A
S1388      H1404   1.405       .  S
S1390      H1401   1.404       .  S
C1392      C1393   1.403       .  A
C1392      S1397   1.806   1_455  S
C1393      C1394   1.405       .  A
C1393      H1398   1.083   1_455  S
C1394      C1395   1.415       .  A
C1395      C1396   1.398       .  A
C1395      S1399   1.804       .  S
C1396      H1400   1.084       .  S
S1397      H1402   1.407       .  S
S1399      H1403   1.406       .  S
C1405      C1406   1.401       .  A
C1405      C1410   1.399       .  A
C1405      H1415   1.084       .  S
C1406      C1407   1.412       .  A
C1406      C1411   1.481       .  S
C1407      C1408   1.402       .  A
C1407      S1412   1.805       .  S
C1408      C1409   1.407       .  A
C1408      H1413   1.084       .  S
C1409      C1410   1.417       .  A
C1410      S1414   1.803       .  S
C1411      C1416   1.409       .  A
C1411      C1420   1.403       .  A
S1412      H1428   1.405       .  S
S1414      H1425   1.407       .  S
C1416      C1417   1.401       .  A
C1416      S1421   1.807       .  S
C1417      C1418   1.404       .  A
C1417      H1422   1.083       .  S
C1418      C1419   1.413       .  A
C1419      C1420   1.401       .  A
C1419      S1423   1.804       .  S
C1420      H1424   1.084       .  S
S1421      H1426   1.407       .  S
S1423      H1427   1.406       .  S
C1429      C1430   1.404       .  A
C1429      C1434   1.400       .  A
C1429      H1439   1.084       .  S
C1430      C1431   1.415       .  A
C1430      C1435   1.490       .  S
C1431      C1432   1.402       .  A
C1431      S1436   1.804       .  S
C1432      C1433   1.405       .  A
C1432      H1437   1.084       .  S
C1433      C1434   1.415       .  A
C1434      S1438   1.802       .  S
C1435      C1440   1.413       .  A
C1435      C1444   1.403       .  A
S1436      H1452   1.406       .  S
S1438      H1449   1.407       .  S
C1440      C1441   1.407       .  A
C1440      S1445   1.807       .  S
C1441      C1442   1.405       .  A
C1441      H1446   1.083       .  S
C1442      C1443   1.416       .  A
C1443      C1444   1.400       .  A
C1443      S1447   1.804       .  S
C1444      H1448   1.084       .  S
S1445      H1450   1.407       .  S
S1447      H1451   1.406       .  S
C1453      C1454   1.402       .  A
C1453      C1458   1.401       .  A
C1453      H1463   1.084       .  S
C1454      C1455   1.411       .  A
C1454      C1459   1.479       .  S
C1455      C1456   1.399       .  A
C1455      S1460   1.803   1_565  S
C1456      C1457   1.405       .  A
C1456      H1461   1.084   1_565  S
C1457      C1458   1.416       .  A
C1458      S1462   1.804       .  S
C1459      C1464   1.409       .  A
C1459      C1468   1.401       .  A
S1460      H1476   1.405   1_545  S
S1462      H1473   1.406       .  S
C1464      C1465   1.404       .  A
C1464      S1469   1.806   1_565  S
C1465      C1466   1.405       .  A
C1465      H1470   1.083   1_565  S
C1466      C1467   1.413       .  A
C1467      C1468   1.400       .  A
C1467      S1471   1.804       .  S
C1468      H1472   1.084       .  S
S1469      H1474   1.407       .  S
S1471      H1475   1.406       .  S
C1477      C1478   1.404       .  A
C1477      C1482   1.400       .  A
C1477      H1487   1.084       .  S
C1478      C1479   1.413       .  A
C1478      C1483   1.485       .  S
C1479      C1480   1.400       .  A
C1479      S1484   1.804       .  S
C1480      C1481   1.404       .  A
C1480      H1485   1.084       .  S
C1481      C1482   1.415       .  A
C1482      S1486   1.804       .  S
C1483      C1488   1.411       .  A
C1483      C1492   1.403       .  A
S1484      H1500   1.406       .  S
S1486      H1497   1.407       .  S
C1488      C1489   1.405       .  A
C1488      S1493   1.806       .  S
C1489      C1490   1.404       .  A
C1489      H1494   1.083       .  S
C1490      C1491   1.415       .  A
C1491      C1492   1.399       .  A
C1491      S1495   1.804       .  S
C1492      H1496   1.084       .  S
S1493      H1498   1.407       .  S
S1495      H1499   1.407       .  S
C1501      C1502   1.402       .  A
C1501      C1506   1.400       .  A
C1501      H1511   1.084       .  S
C1502      C1503   1.410       .  A
C1502      C1507   1.479       .  S
C1503      C1504   1.400       .  A
C1503      S1508   1.803       .  S
C1504      C1505   1.405       .  A
C1504      H1509   1.084       .  S
C1505      C1506   1.415       .  A
C1506      S1510   1.804       .  S
C1507      C1512   1.408       .  A
C1507      C1516   1.402       .  A
S1508      H1524   1.405       .  S
S1510      H1521   1.407       .  S
C1512      C1513   1.402       .  A
C1512      S1517   1.807       .  S
C1513      C1514   1.404       .  A
C1513      H1518   1.083       .  S
C1514      C1515   1.415       .  A
C1515      C1516   1.402       .  A
C1515      S1519   1.804       .  S
C1516      H1520   1.084       .  S
S1517      H1522   1.407       .  S
S1519      H1523   1.406       .  S
C1525      C1526   1.403       .  A
C1525      C1530   1.399       .  A
C1525      H1535   1.084       .  S
C1526      C1527   1.412       .  A
C1526      C1531   1.481       .  S
C1527      C1528   1.400       .  A
C1527      S1532   1.804       .  S
C1528      C1529   1.405       .  A
C1528      H1533   1.084       .  S
C1529      C1530   1.414       .  A
C1530      S1534   1.802       .  S
C1531      C1536   1.409       .  A
C1531      C1540   1.400       .  A
S1532      H1548   1.405       .  S
S1534      H1545   1.406       .  S
C1536      C1537   1.402       .  A
C1536      S1541   1.808       .  S
C1537      C1538   1.407       .  A
C1537      H1542   1.082       .  S
C1538      C1539   1.419       .  A
C1539      C1540   1.401       .  A
C1539      S1543   1.802       .  S
C1540      H1544   1.084       .  S
S1541      H1546   1.407       .  S
S1543      H1547   1.408       .  S
C1549      C1550   1.403       .  A
C1549      C1554   1.403       .  A
C1549      H1559   1.084       .  S
C1550      C1551   1.411       .  A
C1550      C1555   1.482       .  S
C1551      C1552   1.400       .  A
C1551      S1556   1.804       .  S
C1552      C1553   1.405       .  A
C1552      H1557   1.084       .  S
C1553      C1554   1.416       .  A
C1554      S1558   1.804       .  S
C1555      C1560   1.410       .  A
C1555      C1564   1.400       .  A
S1556      H1572   1.405       .  S
S1558      H1569   1.406       .  S
C1560      C1561   1.406       .  A
C1560      S1565   1.806       .  S
C1561      C1562   1.406       .  A
C1561      H1566   1.083       .  S
C1562      C1563   1.417       .  A
C1563      C1564   1.401       .  A
C1563      S1567   1.803       .  S
C1564      H1568   1.084       .  S
S1565      H1570   1.407       .  S
S1567      H1571   1.407       .  S
C1573      C1574   1.403       .  A
C1573      C1578   1.400       .  A
C1573      H1583   1.084       .  S
C1574      C1575   1.415       .  A
C1574      C1579   1.487       .  S
C1575      C1576   1.401       .  A
C1575      S1580   1.804       .  S
C1576      C1577   1.403       .  A
C1576      H1581   1.084       .  S
C1577      C1578   1.416       .  A
C1578      S1582   1.804       .  S
C1579      C1584   1.412       .  A
C1579      C1588   1.404       .  A
S1580      H1596   1.406       .  S
S1582      H1593   1.407       .  S
C1584      C1585   1.404       .  A
C1584      S1589   1.808       .  S
C1585      C1586   1.405       .  A
C1585      H1590   1.083       .  S
C1586      C1587   1.415       .  A
C1587      C1588   1.401       .  A
C1587      S1591   1.802       .  S
C1588      H1592   1.084       .  S
S1589      H1594   1.407       .  S
S1591      H1595   1.406       .  S
C1597      C1598   1.404       .  A
C1597      C1602   1.401       .  A
C1597      H1607   1.084       .  S
C1598      C1599   1.414       .  A
C1598      C1603   1.484       .  S
C1599      C1600   1.399       .  A
C1599      S1604   1.806       .  S
C1600      C1601   1.406       .  A
C1600      H1605   1.084       .  S
C1601      C1602   1.413       .  A
C1602      S1606   1.803       .  S
C1603      C1608   1.410       .  A
C1603      C1612   1.402       .  A
S1604      H1620   1.405       .  S
S1606      H1617   1.407       .  S
C1608      C1609   1.404       .  A
C1608      S1613   1.807       .  S
C1609      C1610   1.407       .  A
C1609      H1614   1.083       .  S
C1610      C1611   1.415       .  A
C1611      C1612   1.399       .  A
C1611      S1615   1.802       .  S
C1612      H1616   1.084       .  S
S1613      H1618   1.407       .  S
S1615      H1619   1.407       .  S
C1621      C1622   1.405       .  A
C1621      C1626   1.405       .  A
C1621      H1631   1.084       .  S
C1622      C1623   1.412       .  A
C1622      C1627   1.486       .  S
C1623      C1624   1.398       .  A
C1623      S1628   1.805       .  S
C1624      C1625   1.406       .  A
C1624      H1629   1.084       .  S
C1625      C1626   1.416       .  A
C1626      S1630   1.803       .  S
C1627      C1632   1.410       .  A
C1627      C1636   1.403       .  A
S1628      H1644   1.406       .  S
S1630      H1641   1.406       .  S
C1632      C1633   1.404       .  A
C1632      S1637   1.806       .  S
C1633      C1634   1.404       .  A
C1633      H1638   1.083       .  S
C1634      C1635   1.416       .  A
C1635      C1636   1.402       .  A
C1635      S1639   1.804       .  S
C1636      H1640   1.084       .  S
S1637      H1642   1.407       .  S
S1639      H1643   1.407       .  S
C1645      C1646   1.403       .  A
C1645      C1650   1.398       .  A
C1645      H1655   1.084   1_565  S
C1646      C1647   1.412       .  A
C1646      C1651   1.477       .  S
C1647      C1648   1.399       .  A
C1647      S1652   1.804       .  S
C1648      C1649   1.402       .  A
C1648      H1653   1.084       .  S
C1649      C1650   1.412       .  A
C1650      S1654   1.804   1_565  S
C1651      C1656   1.408       .  A
C1651      C1660   1.402       .  A
S1652      H1668   1.405       .  S
S1654      H1665   1.404       .  S
C1656      C1657   1.401       .  A
C1656      S1661   1.806   1_565  S
C1657      C1658   1.405       .  A
C1657      H1662   1.083       .  S
C1658      C1659   1.413       .  A
C1659      C1660   1.400       .  A
C1659      S1663   1.803       .  S
C1660      H1664   1.084       .  S
S1661      H1666   1.407       .  S
S1663      H1667   1.406       .  S
C1669      C1670   1.403       .  A
C1669      C1674   1.401       .  A
C1669      H1679   1.084       .  S
C1670      C1671   1.413       .  A
C1670      C1675   1.482       .  S
C1671      C1672   1.399       .  A
C1671      S1676   1.805       .  S
C1672      C1673   1.404       .  A
C1672      H1677   1.084       .  S
C1673      C1674   1.415       .  A
C1674      S1678   1.803       .  S
C1675      C1680   1.411       .  A
C1675      C1684   1.400       .  A
S1676      H1692   1.406       .  S
S1678      H1689   1.407       .  S
C1680      C1681   1.405       .  A
C1680      S1685   1.806       .  S
C1681      C1682   1.405       .  A
C1681      H1686   1.083       .  S
C1682      C1683   1.416       .  A
C1683      C1684   1.397       .  A
C1683      S1687   1.805       .  S
C1684      H1688   1.084       .  S
S1685      H1690   1.407       .  S
S1687      H1691   1.407       .  S
C1693      C1694   1.403       .  A
C1693      C1698   1.401       .  A
C1693      H1703   1.084       .  S
C1694      C1695   1.414       .  A
C1694      C1699   1.487       .  S
C1695      C1696   1.402       .  A
C1695      S1700   1.804       .  S
C1696      C1697   1.406       .  A
C1696      H1701   1.084       .  S
C1697      C1698   1.416       .  A
C1698      S1702   1.803       .  S
C1699      C1704   1.411       .  A
C1699      C1708   1.405       .  A
S1700      H1716   1.406       .  S
S1702      H1713   1.407       .  S
C1704      C1705   1.402       .  A
C1704      S1709   1.807       .  S
C1705      C1706   1.405       .  A
C1705      H1710   1.083       .  S
C1706      C1707   1.415       .  A
C1707      C1708   1.402       .  A
C1707      S1711   1.804       .  S
C1708      H1712   1.084       .  S
S1709      H1714   1.407       .  S
S1711      H1715   1.406       .  S
C1717      C1718   1.402       .  A
C1717      C1722   1.400       .  A
C1717      H1727   1.084       .  S
C1718      C1719   1.413       .  A
C1718      C1723   1.484       .  S
C1719      C1720   1.401       .  A
C1719      S1724   1.804       .  S
C1720      C1721   1.405       .  A
C1720      H1725   1.084       .  S
C1721      C1722   1.415       .  A
C1722      S1726   1.802       .  S
C1723      C1728   1.410       .  A
C1723      C1732   1.401       .  A
S1724      H1740   1.406       .  S
S1726      H1737   1.407       .  S
C1728      C1729   1.405       .  A
C1728      S1733   1.806       .  S
C1729      C1730   1.406       .  A
C1729      H1734   1.083       .  S
C1730      C1731   1.417       .  A
C1731      C1732   1.399       .  A
C1731      S1735   1.804       .  S
C1732      H1736   1.084       .  S
S1733      H1738   1.407       .  S
S1735      H1739   1.406       .  S
C1741      C1742   1.402       .  A
C1741      C1746   1.401       .  A
C1741      H1751   1.084       .  S
C1742      C1743   1.411       .  A
C1742      C1747   1.483       .  S
C1743      C1744   1.401       .  A
C1743      S1748   1.804       .  S
C1744      C1745   1.407       .  A
C1744      H1749   1.084       .  S
C1745      C1746   1.416       .  A
C1746      S1750   1.803       .  S
C1747      C1752   1.410       .  A
C1747      C1756   1.402       .  A
S1748      H1764   1.405       .  S
S1750      H1761   1.407       .  S
C1752      C1753   1.404       .  A
C1752      S1757   1.807       .  S
C1753      C1754   1.405       .  A
C1753      H1758   1.083       .  S
C1754      C1755   1.414       .  A
C1755      C1756   1.401       .  A
C1755      S1759   1.803       .  S
C1756      H1760   1.084       .  S
S1757      H1762   1.407       .  S
S1759      H1763   1.406       .  S
C1765      C1766   1.402       .  A
C1765      C1770   1.399       .  A
C1765      H1775   1.084       .  S
C1766      C1767   1.413       .  A
C1766      C1771   1.487       .  S
C1767      C1768   1.402       .  A
C1767      S1772   1.804       .  S
C1768      C1769   1.409       .  A
C1768      H1773   1.083       .  S
C1769      C1770   1.420       .  A
C1770      S1774   1.801       .  S
C1771      C1776   1.413       .  A
C1771      C1780   1.402       .  A
S1772      H1788   1.406       .  S
S1774      H1785   1.408       .  S
C1776      C1777   1.406       .  A
C1776      S1781   1.807       .  S
C1777      C1778   1.403       .  A
C1777      H1782   1.083       .  S
C1778      C1779   1.413       .  A
C1779      C1780   1.398       .  A
C1779      S1783   1.802       .  S
C1780      H1784   1.084       .  S
S1781      H1786   1.407       .  S
S1783      H1787   1.407       .  S
C1789      C1790   1.401       .  A
C1789      C1794   1.400       .  A
C1789      H1799   1.084       .  S
C1790      C1791   1.411       .  A
C1790      C1795   1.481       .  S
C1791      C1792   1.400       .  A
C1791      S1796   1.804       .  S
C1792      C1793   1.407       .  A
C1792      H1797   1.084       .  S
C1793      C1794   1.419       .  A
C1794      S1798   1.802       .  S
C1795      C1800   1.410       .  A
C1795      C1804   1.400       .  A
S1796      H1812   1.406       .  S
S1798      H1809   1.407       .  S
C1800      C1801   1.405       .  A
C1800      S1805   1.806       .  S
C1801      C1802   1.404       .  A
C1801      H1806   1.083       .  S
C1802      C1803   1.415       .  A
C1803      C1804   1.397       .  A
C1803      S1807   1.805       .  S
C1804      H1808   1.084       .  S
S1805      H1810   1.407       .  S
S1807      H1811   1.406       .  S
C1813      C1814   1.402       .  A
C1813      C1818   1.398       .  A
C1813      H1823   1.084   1_455  S
C1814      C1815   1.413       .  A
C1814      C1819   1.477       .  S
C1815      C1816   1.399       .  A
C1815      S1820   1.805       .  S
C1816      C1817   1.402       .  A
C1816      H1821   1.084       .  S
C1817      C1818   1.413       .  A
C1818      S1822   1.805   1_455  S
C1819      C1824   1.408       .  A
C1819      C1828   1.401       .  A
S1820      H1836   1.405       .  S
S1822      H1833   1.405       .  S
C1824      C1825   1.403       .  A
C1824      S1829   1.806       .  S
C1825      C1826   1.406       .  A
C1825      H1830   1.083       .  S
C1826      C1827   1.413       .  A
C1827      C1828   1.398       .  A
C1827      S1831   1.804   1_455  S
C1828      H1832   1.084       .  S
S1829      H1834   1.407       .  S
S1831      H1835   1.406   1_655  S
C1837      C1838   1.405       .  A
C1837      C1842   1.400       .  A
C1837      H1847   1.084       .  S
C1838      C1839   1.415       .  A
C1838      C1843   1.489       .  S
C1839      C1840   1.402       .  A
C1839      S1844   1.803       .  S
C1840      C1841   1.402       .  A
C1840      H1845   1.084       .  S
C1841      C1842   1.412       .  A
C1842      S1846   1.804       .  S
C1843      C1848   1.411       .  A
C1843      C1852   1.403       .  A
S1844      H1860   1.406       .  S
S1846      H1857   1.406   1_655  S
C1848      C1849   1.406       .  A
C1848      S1853   1.807       .  S
C1849      C1850   1.407       .  A
C1849      H1854   1.082       .  S
C1850      C1851   1.418       .  A
C1851      C1852   1.401       .  A
C1851      S1855   1.803       .  S
C1852      H1856   1.084       .  S
S1853      H1858   1.407       .  S
S1855      H1859   1.407       .  S
C1861      C1862   1.401       .  A
C1861      C1866   1.399       .  A
C1861      H1871   1.084       .  S
C1862      C1863   1.413       .  A
C1862      C1867   1.481       .  S
C1863      C1864   1.400       .  A
C1863      S1868   1.804       .  S
C1864      C1865   1.404       .  A
C1864      H1869   1.084       .  S
C1865      C1866   1.416       .  A
C1866      S1870   1.804       .  S
C1867      C1872   1.408       .  A
C1867      C1876   1.403       .  A
S1868      H1884   1.406       .  S
S1870      H1881   1.407       .  S
C1872      C1873   1.400       .  A
C1872      S1877   1.808       .  S
C1873      C1874   1.406       .  A
C1873      H1878   1.083       .  S
C1874      C1875   1.416       .  A
C1875      C1876   1.402       .  A
C1875      S1879   1.803       .  S
C1876      H1880   1.084       .  S
S1877      H1882   1.407       .  S
S1879      H1883   1.406       .  S
C1885      C1886   1.402       .  A
C1885      C1890   1.401       .  A
C1885      H1895   1.084       .  S
C1886      C1887   1.414       .  A
C1886      C1891   1.485       .  S
C1887      C1888   1.402       .  A
C1887      S1892   1.804       .  S
C1888      C1889   1.403       .  A
C1888      H1893   1.084       .  S
C1889      C1890   1.414       .  A
C1890      S1894   1.804       .  S
C1891      C1896   1.410       .  A
C1891      C1900   1.401       .  A
S1892      H1908   1.405       .  S
S1894      H1905   1.406       .  S
C1896      C1897   1.406       .  A
C1896      S1901   1.806       .  S
C1897      C1898   1.407       .  A
C1897      H1902   1.083       .  S
C1898      C1899   1.419       .  A
C1899      C1900   1.401       .  A
C1899      S1903   1.803       .  S
C1900      H1904   1.084       .  S
S1901      H1906   1.407       .  S
S1903      H1907   1.407       .  S
C1909      C1910   1.402       .  A
C1909      C1914   1.399       .  A
C1909      H1919   1.084       .  S
C1910      C1911   1.414       .  A
C1910      C1915   1.486       .  S
C1911      C1912   1.403       .  A
C1911      S1916   1.803       .  S
C1912      C1913   1.405       .  A
C1912      H1917   1.084       .  S
C1913      C1914   1.416       .  A
C1914      S1918   1.805       .  S
C1915      C1920   1.411       .  A
C1915      C1924   1.402       .  A
S1916      H1932   1.406       .  S
S1918      H1929   1.407       .  S
C1920      C1921   1.406       .  A
C1920      S1925   1.806       .  S
C1921      C1922   1.406       .  A
C1921      H1926   1.083       .  S
C1922      C1923   1.416       .  A
C1923      C1924   1.400       .  A
C1923      S1927   1.803       .  S
C1924      H1928   1.084       .  S
S1925      H1930   1.407       .  S
S1927      H1931   1.407       .  S
C1933      C1934   1.403       .  A
C1933      C1938   1.398       .  A
C1933      H1943   1.084       .  S
C1934      C1935   1.413       .  A
C1934      C1939   1.478       .  S
C1935      C1936   1.399       .  A
C1935      S1940   1.805       .  S
C1936      C1937   1.403       .  A
C1936      H1941   1.084       .  S
C1937      C1938   1.411       .  A
C1938      S1942   1.804       .  S
C1939      C1944   1.410       .  A
C1939      C1948   1.402       .  A
S1940      H1956   1.405       .  S
S1942      H1953   1.405       .  S
C1944      C1945   1.402       .  A
C1944      S1949   1.807       .  S
C1945      C1946   1.401       .  A
C1945      H1950   1.083       .  S
C1946      C1947   1.409       .  A
C1947      C1948   1.402       .  A
C1947      S1951   1.806       .  S
C1948      H1952   1.083       .  S
S1949      H1954   1.407       .  S
S1951      H1955   1.407       .  S
C1957      C1958   1.403       .  A
C1957      C1962   1.401       .  A
C1957      H1967   1.084       .  S
C1958      C1959   1.412       .  A
C1958      C1963   1.480       .  S
C1959      C1960   1.396       .  A
C1959      S1964   1.805       .  S
C1960      C1961   1.405       .  A
C1960      H1965   1.084       .  S
C1961      C1962   1.415       .  A
C1962      S1966   1.804       .  S
C1963      C1968   1.410       .  A
C1963      C1972   1.401       .  A
S1964      H1980   1.406       .  S
S1966      H1977   1.406       .  S
C1968      C1969   1.403       .  A
C1968      S1973   1.807       .  S
C1969      C1970   1.404       .  A
C1969      H1974   1.083       .  S
C1970      C1971   1.414       .  A
C1971      C1972   1.398       .  A
C1971      S1975   1.804       .  S
C1972      H1976   1.084       .  S
S1973      H1978   1.407       .  S
S1975      H1979   1.407       .  S
C1981      C1982   1.402       .  A
C1981      C1986   1.400       .  A
C1981      H1991   1.084       .  S
C1982      C1983   1.412       .  A
C1982      C1987   1.483       .  S
C1983      C1984   1.401       .  A
C1983      S1988   1.803       .  S
C1984      C1985   1.404       .  A
C1984      H1989   1.084       .  S
C1985      C1986   1.416       .  A
C1986      S1990   1.804       .  S
C1987      C1992   1.410       .  A
C1987      C1996   1.401       .  A
S1988      H2004   1.406       .  S
S1990      H2001   1.407       .  S
C1992      C1993   1.406       .  A
C1992      S1997   1.806       .  S
C1993      C1994   1.405       .  A
C1993      H1998   1.083       .  S
C1994      C1995   1.415       .  A
C1995      C1996   1.397       .  A
C1995      S1999   1.805       .  S
C1996      H2000   1.084       .  S
S1997      H2002   1.407       .  S
S1999      H2003   1.407       .  S
C2005      C2006   1.401       .  A
C2005      C2010   1.399       .  A
C2005      H2015   1.084       .  S
C2006      C2007   1.411       .  A
C2006      C2011   1.477       .  S
C2007      C2008   1.398       .  A
C2007      S2012   1.804       .  S
C2008      C2009   1.403       .  A
C2008      H2013   1.084       .  S
C2009      C2010   1.416       .  A
C2010      S2014   1.805       .  S
C2011      C2016   1.410       .  A
C2011      C2020   1.401       .  A
S2012      H2028   1.406       .  S
S2014      H2025   1.407       .  S
C2016      C2017   1.402       .  A
C2016      S2021   1.806       .  S
C2017      C2018   1.403       .  A
C2017      H2022   1.083       .  S
C2018      C2019   1.413       .  A
C2019      C2020   1.398       .  A
C2019      S2023   1.804       .  S
C2020      H2024   1.084       .  S
S2021      H2026   1.407       .  S
S2023      H2027   1.405       .  S
C2029      C2030   1.400       .  A
C2029      C2034   1.396       .  A
C2029      H2039   1.084       .  S
C2030      C2031   1.415       .  A
C2030      C2035   1.481       .  S
C2031      C2032   1.404       .  A
C2031      S2036   1.803       .  S
C2032      C2033   1.403       .  A
C2032      H2037   1.084       .  S
C2033      C2034   1.414       .  A
C2034      S2038   1.806       .  S
C2035      C2040   1.409       .  A
C2035      C2044   1.401       .  A
S2036      H2052   1.405       .  S
S2038      H2049   1.405       .  S
C2040      C2041   1.405       .  A
C2040      S2045   1.806       .  S
C2041      C2042   1.406       .  A
C2041      H2046   1.083       .  S
C2042      C2043   1.417       .  A
C2043      C2044   1.400       .  A
C2043      S2047   1.803       .  S
C2044      H2048   1.084       .  S
S2045      H2050   1.407       .  S
S2047      H2051   1.407       .  S
C2053      C2054   1.402       .  A
C2053      C2058   1.401       .  A
C2053      H2063   1.084       .  S
C2054      C2055   1.414       .  A
C2054      C2059   1.486       .  S
C2055      C2056   1.401       .  A
C2055      S2060   1.805       .  S
C2056      C2057   1.406       .  A
C2056      H2061   1.084       .  S
C2057      C2058   1.416       .  A
C2058      S2062   1.802       .  S
C2059      C2064   1.411       .  A
C2059      C2068   1.404       .  A
S2060      H2076   1.406       .  S
S2062      H2073   1.407       .  S
C2064      C2065   1.402       .  A
C2064      S2069   1.808       .  S
C2065      C2066   1.406       .  A
C2065      H2070   1.083       .  S
C2066      C2067   1.414       .  A
C2067      C2068   1.402       .  A
C2067      S2071   1.803       .  S
C2068      H2072   1.084       .  S
S2069      H2074   1.407       .  S
S2071      H2075   1.406       .  S
C2077      C2078   1.406       .  A
C2077      C2082   1.397       .  A
C2077      H2087   1.083       .  S
C2078      C2079   1.418       .  A
C2078      C2083   1.493       .  S
C2079      C2080   1.397       .  A
C2079      S2084   1.805       .  S
C2080      C2081   1.404       .  A
C2080      H2085   1.084       .  S
C2081      C2082   1.415       .  A
C2082      S2086   1.805       .  S
C2083      C2088   1.414       .  A
C2083      C2092   1.405       .  A
S2084      H2100   1.407       .  S
S2086      H2097   1.407       .  S
C2088      C2089   1.400       .  A
C2088      S2093   1.810       .  S
C2089      C2090   1.410       .  A
C2089      H2094   1.080       .  S
C2090      C2091   1.420       .  A
C2091      C2092   1.398       .  A
C2091      S2095   1.805       .  S
C2092      H2096   1.083       .  S
S2093      H2098   1.407       .  S
S2095      H2099   1.407       .  S
C2101      C2102   1.403       .  A
C2101      C2106   1.398       .  A
C2101      H2111   1.084       .  S
C2102      C2103   1.415       .  A
C2102      C2107   1.486       .  S
C2103      C2104   1.403       .  A
C2103      S2108   1.803       .  S
C2104      C2105   1.404       .  A
C2104      H2109   1.084       .  S
C2105      C2106   1.414       .  A
C2106      S2110   1.804       .  S
C2107      C2112   1.411       .  A
C2107      C2116   1.403       .  A
S2108      H2124   1.406       .  S
S2110      H2121   1.407       .  S
C2112      C2113   1.403       .  A
C2112      S2117   1.807       .  S
C2113      C2114   1.404       .  A
C2113      H2118   1.083       .  S
C2114      C2115   1.415       .  A
C2115      C2116   1.400       .  A
C2115      S2119   1.804       .  S
C2116      H2120   1.084       .  S
S2117      H2122   1.407       .  S
S2119      H2123   1.407       .  S
C2125      C2126   1.405       .  A
C2125      C2130   1.403       .  A
C2125      H2135   1.084       .  S
C2126      C2127   1.412       .  A
C2126      C2131   1.487       .  S
C2127      C2128   1.399       .  A
C2127      S2132   1.804       .  S
C2128      C2129   1.406       .  A
C2128      H2133   1.084       .  S
C2129      C2130   1.416       .  A
C2130      S2134   1.804       .  S
C2131      C2136   1.411       .  A
C2131      C2140   1.404       .  A
S2132      H2148   1.406       .  S
S2134      H2145   1.407       .  S
C2136      C2137   1.405       .  A
C2136      S2141   1.807       .  S
C2137      C2138   1.406       .  A
C2137      H2142   1.083       .  S
C2138      C2139   1.415       .  A
C2139      C2140   1.402       .  A
C2139      S2143   1.803       .  S
C2140      H2144   1.084       .  S
S2141      H2146   1.407       .  S
S2143      H2147   1.407       .  S
C2149      C2150   1.401       .  A
C2149      C2154   1.398       .  A
C2149      H2159   1.084       .  S
C2150      C2151   1.413       .  A
C2150      C2155   1.477       .  S
C2151      C2152   1.399       .  A
C2151      S2156   1.805       .  S
C2152      C2153   1.402       .  A
C2152      H2157   1.084       .  S
C2153      C2154   1.412       .  A
C2154      S2158   1.804       .  S
C2155      C2160   1.409       .  A
C2155      C2164   1.402       .  A
S2156      H2172   1.405       .  S
S2158      H2169   1.406       .  S
C2160      C2161   1.401       .  A
C2160      S2165   1.806       .  S
C2161      C2162   1.402       .  A
C2161      H2166   1.083       .  S
C2162      C2163   1.412       .  A
C2163      C2164   1.399       .  A
C2163      S2167   1.805       .  S
C2164      H2168   1.084       .  S
S2165      H2170   1.407       .  S
S2167      H2171   1.404       .  S
C2173      C2174   1.404       .  A
C2173      C2178   1.399       .  A
C2173      H2183   1.084       .  S
C2174      C2175   1.413       .  A
C2174      C2179   1.485       .  S
C2175      C2176   1.399       .  A
C2175      S2180   1.804       .  S
C2176      C2177   1.404       .  A
C2176      H2181   1.084       .  S
C2177      C2178   1.414       .  A
C2178      S2182   1.803       .  S
C2179      C2184   1.412       .  A
C2179      C2188   1.403       .  A
S2180      H2196   1.406       .  S
S2182      H2193   1.407       .  S
C2184      C2185   1.404       .  A
C2184      S2189   1.807       .  S
C2185      C2186   1.403       .  A
C2185      H2190   1.083       .  S
C2186      C2187   1.414       .  A
C2187      C2188   1.397       .  A
C2187      S2191   1.805       .  S
C2188      H2192   1.084       .  S
S2189      H2194   1.407       .  S
S2191      H2195   1.407       .  S
C2197      C2198   1.401       .  A
C2197      C2202   1.402       .  A
C2197      H2207   1.084       .  S
C2198      C2199   1.410       .  A
C2198      C2203   1.481       .  S
C2199      C2200   1.401       .  A
C2199      S2204   1.804       .  S
C2200      C2201   1.408       .  A
C2200      H2205   1.084       .  S
C2201      C2202   1.420       .  A
C2202      S2206   1.802       .  S
C2203      C2208   1.408       .  A
C2203      C2212   1.402       .  A
S2204      H2220   1.405       .  S
S2206      H2217   1.408       .  S
C2208      C2209   1.402       .  A
C2208      S2213   1.806       .  S
C2209      C2210   1.406       .  A
C2209      H2214   1.083       .  S
C2210      C2211   1.415       .  A
C2211      C2212   1.402       .  A
C2211      S2215   1.804       .  S
C2212      H2216   1.084       .  S
S2213      H2218   1.407       .  S
S2215      H2219   1.407       .  S
C2221      C2222   1.402       .  A
C2221      C2226   1.397       .  A
C2221      H2231   1.084       .  S
C2222      C2223   1.411       .  A
C2222      C2227   1.472       .  S
C2223      C2224   1.397       .  A
C2223      S2228   1.805       .  S
C2224      C2225   1.402       .  A
C2224      H2229   1.084       .  S
C2225      C2226   1.411       .  A
C2226      S2230   1.805       .  S
C2227      C2232   1.408       .  A
C2227      C2236   1.400       .  A
S2228      H2244   1.404       .  S
S2230      H2241   1.404       .  S
C2232      C2233   1.402       .  A
C2232      S2237   1.806       .  S
C2233      C2234   1.404       .  A
C2233      H2238   1.083       .  S
C2234      C2235   1.412       .  A
C2235      C2236   1.396       .  A
C2235      S2239   1.804       .  S
C2236      H2240   1.084       .  S
S2237      H2242   1.407       .  S
S2239      H2243   1.407       .  S
C2245      C2246   1.403       .  A
C2245      C2250   1.401       .  A
C2245      H2255   1.084       .  S
C2246      C2247   1.413       .  A
C2246      C2251   1.482       .  S
C2247      C2248   1.399       .  A
C2247      S2252   1.805       .  S
C2248      C2249   1.406       .  A
C2248      H2253   1.084       .  S
C2249      C2250   1.415       .  A
C2250      S2254   1.803       .  S
C2251      C2256   1.409       .  A
C2251      C2260   1.402       .  A
S2252      H2268   1.405       .  S
S2254      H2265   1.407       .  S
C2256      C2257   1.404       .  A
C2256      S2261   1.806       .  S
C2257      C2258   1.405       .  A
C2257      H2262   1.083       .  S
C2258      C2259   1.415       .  A
C2259      C2260   1.400       .  A
C2259      S2263   1.804       .  S
C2260      H2264   1.084       .  S
S2261      H2266   1.407       .  S
S2263      H2267   1.407       .  S
C2269      C2270   1.404       .  A
C2269      C2274   1.401       .  A
C2269      H2279   1.084       .  S
C2270      C2271   1.413       .  A
C2270      C2275   1.486       .  S
C2271      C2272   1.401       .  A
C2271      S2276   1.804       .  S
C2272      C2273   1.404       .  A
C2272      H2277   1.084       .  S
C2273      C2274   1.415       .  A
C2274      S2278   1.804       .  S
C2275      C2280   1.411       .  A
C2275      C2284   1.403       .  A
S2276      H2292   1.406       .  S
S2278      H2289   1.407       .  S
C2280      C2281   1.406       .  A
C2280      S2285   1.806       .  S
C2281      C2282   1.405       .  A
C2281      H2286   1.083       .  S
C2282      C2283   1.415       .  A
C2283      C2284   1.399       .  A
C2283      S2287   1.804       .  S
C2284      H2288   1.084       .  S
S2285      H2290   1.407       .  S
S2287      H2291   1.407       .  S
C2293      C2294   1.402       .  A
C2293      C2298   1.400       .  A
C2293      H2303   1.084       .  S
C2294      C2295   1.411       .  A
C2294      C2299   1.477       .  S
C2295      C2296   1.398       .  A
C2295      S2300   1.804       .  S
C2296      C2297   1.403       .  A
C2296      H2301   1.084       .  S
C2297      C2298   1.414       .  A
C2298      S2302   1.804       .  S
C2299      C2304   1.408       .  A
C2299      C2308   1.400       .  A
S2300      H2316   1.405       .  S
S2302      H2313   1.405       .  S
C2304      C2305   1.402       .  A
C2304      S2309   1.806       .  S
C2305      C2306   1.405       .  A
C2305      H2310   1.083       .  S
C2306      C2307   1.416       .  A
C2307      C2308   1.398       .  A
C2307      S2311   1.804       .  S
C2308      H2312   1.084       .  S
S2309      H2314   1.407       .  S
S2311      H2315   1.406       .  S
C2317      C2318   1.403       .  A
C2317      C2322   1.400       .  A
C2317      H2327   1.084       .  S
C2318      C2319   1.414       .  A
C2318      C2323   1.486       .  S
C2319      C2320   1.401       .  A
C2319      S2324   1.805       .  S
C2320      C2321   1.406       .  A
C2320      H2325   1.084       .  S
C2321      C2322   1.417       .  A
C2322      S2326   1.804       .  S
C2323      C2328   1.411       .  A
C2323      C2332   1.402       .  A
S2324      H2340   1.405       .  S
S2326      H2337   1.407       .  S
C2328      C2329   1.406       .  A
C2328      S2333   1.807       .  S
C2329      C2330   1.407       .  A
C2329      H2334   1.083       .  S
C2330      C2331   1.415       .  A
C2331      C2332   1.400       .  A
C2331      S2335   1.802       .  S
C2332      H2336   1.084       .  S
S2333      H2338   1.407       .  S
S2335      H2339   1.407       .  S
C2341      C2342   1.401       .  A
C2341      C2346   1.398       .  A
C2341      H2351   1.084       .  S
C2342      C2343   1.414       .  A
C2342      C2347   1.481       .  S
C2343      C2344   1.402       .  A
C2343      S2348   1.804       .  S
C2344      C2345   1.404       .  A
C2344      H2349   1.084       .  S
C2345      C2346   1.414       .  A
C2346      S2350   1.805       .  S
C2347      C2352   1.410       .  A
C2347      C2356   1.400       .  A
S2348      H2364   1.405       .  S
S2350      H2361   1.406       .  S
C2352      C2353   1.404       .  A
C2352      S2357   1.807       .  S
C2353      C2354   1.407       .  A
C2353      H2358   1.083       .  S
C2354      C2355   1.416       .  A
C2355      C2356   1.399       .  A
C2355      S2359   1.803       .  S
C2356      H2360   1.084       .  S
S2357      H2362   1.407       .  S
S2359      H2363   1.408       .  S
C2365      C2366   1.402       .  A
C2365      C2370   1.399       .  A
C2365      H2375   1.084       .  S
C2366      C2367   1.412       .  A
C2366      C2371   1.478       .  S
C2367      C2368   1.400       .  A
C2367      S2372   1.805       .  S
C2368      C2369   1.405       .  A
C2368      H2373   1.084       .  S
C2369      C2370   1.414       .  A
C2370      S2374   1.804       .  S
C2371      C2376   1.409       .  A
C2371      C2380   1.401       .  A
S2372      H2388   1.405       .  S
S2374      H2385   1.407       .  S
C2376      C2377   1.402       .  A
C2376      S2381   1.806       .  S
C2377      C2378   1.403       .  A
C2377      H2382   1.083       .  S
C2378      C2379   1.414       .  A
C2379      C2380   1.399       .  A
C2379      S2383   1.804       .  S
C2380      H2384   1.084       .  S
S2381      H2386   1.407       .  S
S2383      H2387   1.406       .  S
C2389      C2390   1.404       .  A
C2389      C2394   1.400       .  A
C2389      H2399   1.084       .  S
C2390      C2391   1.415       .  A
C2390      C2395   1.488       .  S
C2391      C2392   1.403       .  A
C2391      S2396   1.804       .  S
C2392      C2393   1.404       .  A
C2392      H2397   1.084       .  S
C2393      C2394   1.413       .  A
C2394      S2398   1.802       .  S
C2395      C2400   1.412       .  A
C2395      C2404   1.403       .  A
S2396      H2412   1.406       .  S
S2398      H2409   1.406       .  S
C2400      C2401   1.406       .  A
C2400      S2405   1.807       .  S
C2401      C2402   1.404       .  A
C2401      H2406   1.083       .  S
C2402      C2403   1.415       .  A
C2403      C2404   1.400       .  A
C2403      S2407   1.804       .  S
C2404      H2408   1.084       .  S
S2405      H2410   1.407       .  S
S2407      H2411   1.407       .  S
C2413      C2414   1.403       .  A
C2413      C2418   1.400       .  A
C2413      H2423   1.084       .  S
C2414      C2415   1.413       .  A
C2414      C2419   1.483       .  S
C2415      C2416   1.400       .  A
C2415      S2420   1.804       .  S
C2416      C2417   1.403       .  A
C2416      H2421   1.084       .  S
C2417      C2418   1.414       .  A
C2418      S2422   1.803       .  S
C2419      C2424   1.410       .  A
C2419      C2428   1.403       .  A
S2420      H2436   1.406       .  S
S2422      H2433   1.407       .  S
C2424      C2425   1.403       .  A
C2424      S2429   1.807       .  S
C2425      C2426   1.406       .  A
C2425      H2430   1.083       .  S
C2426      C2427   1.414       .  A
C2427      C2428   1.401       .  A
C2427      S2431   1.803       .  S
C2428      H2432   1.084       .  S
S2429      H2434   1.407       .  S
S2431      H2435   1.407       .  S
C2437      C2438   1.402       .  A
C2437      C2442   1.398       .  A
C2437      H2447   1.084       .  S
C2438      C2439   1.413       .  A
C2438      C2443   1.476       .  S
C2439      C2440   1.398       .  A
C2439      S2444   1.805       .  S
C2440      C2441   1.402       .  A
C2440      H2445   1.084       .  S
C2441      C2442   1.412       .  A
C2442      S2446   1.805       .  S
C2443      C2448   1.408       .  A
C2443      C2452   1.400       .  A
S2444      H2460   1.405       .  S
S2446      H2457   1.405       .  S
C2448      C2449   1.403       .  A
C2448      S2453   1.806       .  S
C2449      C2450   1.405       .  A
C2449      H2454   1.083       .  S
C2450      C2451   1.415       .  A
C2451      C2452   1.397       .  A
C2451      S2455   1.805       .  S
C2452      H2456   1.084       .  S
S2453      H2458   1.407       .  S
S2455      H2459   1.407       .  S
C2461      C2462   1.404       .  A
C2461      C2466   1.399       .  A
C2461      H2471   1.084       .  S
C2462      C2463   1.414       .  A
C2462      C2467   1.488       .  S
C2463      C2464   1.403       .  A
C2463      S2468   1.803       .  S
C2464      C2465   1.405       .  A
C2464      H2469   1.084       .  S
C2465      C2466   1.415       .  A
C2466      S2470   1.804       .  S
C2467      C2472   1.412       .  A
C2467      C2476   1.404       .  A
S2468      H2484   1.406       .  S
S2470      H2481   1.407       .  S
C2472      C2473   1.404       .  A
C2472      S2477   1.807       .  S
C2473      C2474   1.405       .  A
C2473      H2478   1.083       .  S
C2474      C2475   1.415       .  A
C2475      C2476   1.401       .  A
C2475      S2479   1.803       .  S
C2476      H2480   1.084       .  S
S2477      H2482   1.407       .  S
S2479      H2483   1.407       .  S
C2485      C2486   1.404       .  A
C2485      C2490   1.401       .  A
C2485      H2495   1.084       .  S
C2486      C2487   1.413       .  A
C2486      C2491   1.484       .  S
C2487      C2488   1.400       .  A
C2487      S2492   1.804       .  S
C2488      C2489   1.405       .  A
C2488      H2493   1.084       .  S
C2489      C2490   1.414       .  A
C2490      S2494   1.803       .  S
C2491      C2496   1.412       .  A
C2491      C2500   1.402       .  A
S2492      H2508   1.406       .  S
S2494      H2505   1.407       .  S
C2496      C2497   1.404       .  A
C2496      S2501   1.807       .  S
C2497      C2498   1.404       .  A
C2497      H2502   1.083       .  S
C2498      C2499   1.415       .  A
C2499      C2500   1.400       .  A
C2499      S2503   1.803       .  S
C2500      H2504   1.084       .  S
S2501      H2506   1.407       .  S
S2503      H2507   1.407       .  S
C2509      C2510   1.401       .  A
C2509      C2514   1.400       .  A
C2509      H2519   1.084       .  S
C2510      C2511   1.411       .  A
C2510      C2515   1.478       .  S
C2511      C2512   1.400       .  A
C2511      S2516   1.804       .  S
C2512      C2513   1.405       .  A
C2512      H2517   1.084       .  S
C2513      C2514   1.416       .  A
C2514      S2518   1.804       .  S
C2515      C2520   1.408       .  A
C2515      C2524   1.402       .  A
S2516      H2532   1.404       .  S
S2518      H2529   1.407       .  S
C2520      C2521   1.402       .  A
C2520      S2525   1.806       .  S
C2521      C2522   1.404       .  A
C2521      H2526   1.083       .  S
C2522      C2523   1.414       .  A
C2523      C2524   1.400       .  A
C2523      S2527   1.804       .  S
C2524      H2528   1.084       .  S
S2525      H2530   1.407       .  S
S2527      H2531   1.405       .  S
