geometry optimzed in LAMMPS
_audit_creation_date              2020-11-30 
_audit_creation_method            'lammps2cif' 
_symmetry_space_group_name_H-M    'P1' 
_symmetry_Int_Tables_number       1 
_symmetry_cell_setting            triclinic 
loop_ 
_symmetry_equiv_pos_as_xyz 
  x,y,z 
_cell_length_a                    29.83097751610858 
_cell_length_b                    29.83416795169232 
_cell_length_c                    27.78442588884891 
_cell_angle_alpha                 89.55837799892021 
_cell_angle_beta                  89.54589105343106 
_cell_angle_gamma                 89.79687213988362 
loop_ 
_atom_site_label 
_atom_site_type_symbol 
_atom_site_fract_x 
_atom_site_fract_y 
_atom_site_fract_z 
_atom_site_charge 
O1          O  0.07694516  0.48488382  0.05161182    -0.77570
O2          O  0.39487218  0.04034952  0.02063304    -0.77600
O3          O  0.01324306  0.06043714  0.07082917    -0.77600
O4          O  0.48962800  0.43128620  0.07347938    -0.77550
O5          O  0.46531353  0.09797205  0.02518891    -0.77670
O6          O  0.03844821  0.40719276  0.02157358    -0.77590
O7          O  0.42306300  0.49233358  0.07291959    -0.77570
O8          O  0.09933208  0.05450930  0.03778059    -0.77610
C9          C  0.10261476  0.01831981  0.06143891     1.12120
C10         C  0.39439913  0.02129695  0.06177605     1.12000
C11         C  0.48778935  0.09390671  0.06383385     1.12140
C12         C  0.51825994  0.40244945  0.06132301     1.12020
O13         O  0.01604657  0.42374157  0.44873392    -0.77570
O14         O  0.46073562  0.10600899  0.47967240    -0.77650
O15         O  0.06933748  0.01085206  0.42639082    -0.77580
O16         O  0.44022737  0.48796852  0.42917474    -0.77560
O17         O  0.40291501  0.03589602  0.47531918    -0.77620
O18         O  0.09364564  0.46242082  0.47846000    -0.77580
O19         O  0.44608972  0.40178323  0.46196827    -0.77540
O20         O  0.00821498  0.07744811  0.42688998    -0.77610
Co21       Co  0.04368044  0.46701793  0.98844458     1.51530
Co22       Co  0.44876387  0.05370278  0.52494767     1.51690
Co23       Co  0.04347521  0.03569091  0.01340926     1.51570
Co24       Co  0.46501764  0.45753202  0.48644743     1.51470
O25         O  0.98699242  0.50168766  0.00015477    -1.39510
C26         C  0.98250688  0.39826977  0.43871303     1.12050
C27         C  0.47938643  0.10628671  0.43831201     1.12140
C28         C  0.09822606  0.48234064  0.43859565     1.12070
C29         C  0.40684131  0.01369982  0.43646962     1.12050
C30         C  0.01784789  0.28691069  0.14050181     0.05690
C31         C  0.01147693  0.24633582  0.11662665    -0.10460
C32         C  0.00093142  0.20750839  0.14285534     0.03190
C33         C  0.99599678  0.20942453  0.19290559    -0.08980
C34         C  0.00302557  0.24975791  0.21831639     0.05690
C35         C  0.01481064  0.28831479  0.19087090    -0.08400
H36         H  0.01385914  0.24515474  0.07768288     0.11280
H37         H  0.98555896  0.17904603  0.21089540     0.08810
H38         H  0.02128795  0.32009302  0.20760002     0.08660
C39         C  0.98193418  0.21432933  0.35001128     0.05690
C40         C  0.99107413  0.21215609  0.30054908    -0.10410
C41         C  0.99642021  0.25177259  0.27239691     0.03190
C42         C  0.99429311  0.29330352  0.29691706    -0.08980
C43         C  0.98760649  0.29470827  0.34682774     0.05690
C44         C  0.98088827  0.25542226  0.37301632    -0.08400
H45         H  0.99410326  0.17920518  0.28523020     0.11280
H46         H  0.99716207  0.32498923  0.27827997     0.08810
H47         H  0.97503395  0.25682970  0.41159854     0.08660
C48         C  0.20597520  0.01411579  0.15356248     0.05690
C49         C  0.24529256  0.02043485  0.12727915    -0.10460
C50         C  0.28641968  0.01926199  0.15023563     0.03190
C51         C  0.28857000  0.01033198  0.19973913    -0.08980
C52         C  0.24893638  0.00546230  0.22794792     0.05690
C53         C  0.20738487  0.00781726  0.20351956    -0.08400
H54         H  0.24388531  0.02603805  0.08865934     0.11280
H55         H  0.32150989  0.00705096  0.21511453     0.08810
H56         H  0.17571442  0.00538104  0.22230281     0.08660
C57         C  0.21388727  0.48330749  0.35957196     0.05690
C58         C  0.21254556  0.98659700  0.30934741    -0.10460
C59         C  0.25095670  0.99898855  0.28199579     0.03190
C60         C  0.29114835  0.00660072  0.30742757    -0.08980
C61         C  0.29316868  0.50086868  0.35730921     0.05690
C62         C  0.25440420  0.48993233  0.38348899    -0.08400
H63         H  0.18092095  0.97959937  0.29249813     0.11280
H64         H  0.32136600  0.01756355  0.28939802     0.08810
H65         H  0.25558998  0.48741033  0.42242228     0.08660
C66         C  0.97293971  0.14294081  0.40557366    -0.10710
C67         C  0.97510736  0.17446393  0.37839842    -0.12270
C68         C  0.98596176  0.36660554  0.40058499    -0.10710
C69         C  0.98730297  0.33619220  0.37250418    -0.12270
C70         C  0.98944205  0.13123394  0.09614730    -0.10710
C71         C  0.99399230  0.16555873  0.11837217    -0.12270
C72         C  0.02390470  0.32799161  0.11318708    -0.10710
C73         C  0.02425714  0.36254382  0.09009526    -0.12270
C74         C  0.36945268  0.01254272  0.40414789    -0.10710
C75         C  0.33508329  0.00834784  0.38192241    -0.12270
C76         C  0.17281175  0.47694389  0.38682324    -0.10710
C77         C  0.13821432  0.47645762  0.40984436    -0.12270
C78         C  0.32630614  0.02577357  0.12176471    -0.10710
C79         C  0.35781715  0.02783110  0.09453851    -0.12270
C80         C  0.16448116  0.01421511  0.12790366    -0.10710
C81         C  0.13411592  0.01519561  0.09975118    -0.12270
O82         O  0.05858324  0.48582196  0.56973657    -0.77570
O83         O  0.42912854  0.00843844  0.57299042    -0.77600
O84         O  0.03689288  0.10528026  0.52210121    -0.77600
O85         O  0.48318163  0.42182879  0.54850888    -0.77550
O86         O  0.48941893  0.07534728  0.57419780    -0.77670
O87         O  0.05345695  0.40078732  0.53460578    -0.77590
O88         O  0.40516987  0.46158087  0.51990044    -0.77570
O89         O  0.09523664  0.03523715  0.52475424    -0.77610
C90         C  0.09144436  0.01194291  0.56322854     1.12120
C91         C  0.40030575  0.98053127  0.56000076     1.12000
C92         C  0.51841279  0.10420555  0.56348718     1.12140
C93         C  0.51700224  0.39603153  0.55748912     1.12020
O94         O  0.01539547  0.44238676  0.93028805    -0.77570
O95         O  0.49236995  0.07203402  0.92724022    -0.77650
O96         O  0.07894119  0.01747184  0.95124329    -0.77580
O97         O  0.39551104  0.46400175  0.97753147    -0.77560
O98         O  0.42535958  0.01212401  0.92589234    -0.77620
O99         O  0.10027631  0.44752552  0.96575266    -0.77580
O100        O  0.46568554  0.40560569  0.97490634    -0.77540
O101        O  0.03952755  0.09562230  0.98012604    -0.77610
Co102      Co  0.03388861  0.45725834  0.51177024     1.51530
Co103      Co  0.44720483  0.05238629  0.97537826     1.51690
Co104      Co  0.04920875  0.05447211  0.47554421     1.51570
Co105      Co  0.44621927  0.45152523  0.02417177     1.51470
O106        O  0.99916278  0.51381031  0.49983854    -1.39510
C107        C  0.98921199  0.40946182  0.93666002     1.12050
C108        C  0.52042717  0.10072496  0.94013922     1.12140
C109        C  0.10476734  0.48375396  0.94242322     1.12070
C110        C  0.39650467  0.98306866  0.93634806     1.12050
C111        C  0.01582074  0.29160914  0.65034491     0.05690
C112        C  0.01919503  0.25117607  0.62620006    -0.10460
C113        C  0.02098183  0.21112292  0.65192052     0.03190
C114        C  0.01763218  0.21129038  0.70239124    -0.08980
C115        C  0.01509802  0.25231388  0.72806129     0.05690
C116        C  0.01504614  0.29252570  0.70057379    -0.08400
H117        H  0.02068316  0.25090499  0.58714139     0.11280
H118        H  0.01684153  0.17921758  0.72054072     0.08810
H119        H  0.01512236  0.32509064  0.71707619     0.08660
C120        C  0.02068759  0.21634151  0.86121680     0.05690
C121        C  0.02237898  0.21497496  0.81080199    -0.10410
C122        C  0.01321300  0.25359162  0.78252917     0.03190
C123        C  0.00256419  0.29373131  0.80727119    -0.08980
C124        C  0.00299672  0.29567021  0.85757907     0.05690
C125        C  0.01166200  0.25683571  0.88452514    -0.08400
H126        H  0.03109411  0.18337137  0.79456616     0.11280
H127        H  0.99344677  0.32408413  0.78842800     0.08810
H128        H  0.01100290  0.25803704  0.92353054     0.08660
C129        C  0.20526785  0.99875670  0.64229791     0.05690
C130        C  0.24408600  0.98986576  0.61537475    -0.10460
C131        C  0.28452317  0.98063590  0.63872143     0.03190
C132        C  0.28582397  0.97890854  0.68912703    -0.08980
C133        C  0.24724999  0.98837068  0.71733533     0.05690
C134        C  0.20719971  0.99930071  0.69260149    -0.08400
H135        H  0.24290982  0.99046938  0.57636866     0.11280
H136        H  0.31732178  0.96990670  0.70544569     0.08810
H137        H  0.17692517  0.00865984  0.71150234     0.08660
C138        C  0.20901976  0.48517526  0.84935608     0.05690
C139        C  0.20819507  0.98583077  0.79913496    -0.10460
C140        C  0.24845934  0.98639943  0.77175487     0.03190
C141        C  0.28947425  0.98433854  0.79745613    -0.08980
C142        C  0.28956360  0.48075198  0.84787248     0.05690
C143        C  0.24945284  0.48204759  0.87354314    -0.08400
H144        H  0.17567921  0.98533871  0.78249869     0.11280
H145        H  0.32154822  0.98564212  0.77930738     0.08810
H146        H  0.24967997  0.48035405  0.91259398     0.08660
C147        C  0.02652444  0.14092712  0.91194800    -0.10710
C148        C  0.02612918  0.17548025  0.88892117    -0.12270
C149        C  0.99081333  0.37232548  0.90387878    -0.10710
C150        C  0.99517441  0.33791907  0.88154534    -0.12270
C151        C  0.02576303  0.13926446  0.59752572    -0.10710
C152        C  0.02525956  0.17024867  0.62509917    -0.12270
C153        C  0.01418202  0.33217527  0.62262318    -0.10710
C154        C  0.01418751  0.36300726  0.59465920    -0.12270
C155        C  0.36143450  0.97594009  0.90234860    -0.10710
C156        C  0.33045804  0.97661599  0.87476690    -0.12270
C157        C  0.16842356  0.48647236  0.87704925    -0.10710
C158        C  0.13766706  0.48641226  0.90511458    -0.12270
C159        C  0.32540915  0.97502082  0.61109646    -0.10710
C160        C  0.36002871  0.97453505  0.58818045    -0.12270
C161        C  0.16301438  0.00650560  0.61833115    -0.10710
C162        C  0.12857932  0.01064111  0.59601077    -0.12270
O163        O  0.07690661  0.98486852  0.05179029    -0.77570
O164        O  0.39477036  0.54020766  0.02043250    -0.77600
O165        O  0.01305709  0.56049527  0.07081252    -0.77600
O166        O  0.48972797  0.93134122  0.07345464    -0.77550
O167        O  0.46511872  0.59788502  0.02501940    -0.77670
O168        O  0.03847354  0.90715351  0.02159563    -0.77590
O169        O  0.42316308  0.99236724  0.07300377    -0.77570
O170        O  0.09918499  0.55463644  0.03784055    -0.77610
C171        C  0.10256937  0.51837615  0.06135723     1.12120
C172        C  0.39431233  0.52125822  0.06162985     1.12000
C173        C  0.48750478  0.59386843  0.06373110     1.12140
C174        C  0.51833731  0.90249789  0.06125986     1.12020
O175        O  0.01605721  0.92376233  0.44869689    -0.77570
O176        O  0.46072120  0.60606936  0.47953257    -0.77650
O177        O  0.06928196  0.51081687  0.42629879    -0.77580
O178        O  0.44016202  0.98812443  0.42919052    -0.77560
O179        O  0.40291709  0.53585716  0.47509309    -0.77620
O180        O  0.09365439  0.96240474  0.47851809    -0.77580
O181        O  0.44603619  0.90185771  0.46176640    -0.77540
O182        O  0.00811699  0.57740937  0.42684589    -0.77610
Co183      Co  0.04375972  0.96701816  0.98855552     1.51530
Co184      Co  0.44867876  0.55377019  0.52479651     1.51690
Co185      Co  0.04337509  0.53574558  0.01344678     1.51570
Co186      Co  0.46499973  0.95754302  0.48635510     1.51470
O187        O  0.98702696  0.00168912  0.00015350    -1.39510
C188        C  0.98253699  0.89825215  0.43871513     1.12050
C189        C  0.47954116  0.60639916  0.43826214     1.12140
C190        C  0.09826684  0.98236256  0.43868283     1.12070
C191        C  0.40686989  0.51351504  0.43634046     1.12050
C192        C  0.01749722  0.78685946  0.14048468     0.05690
C193        C  0.01102557  0.74630275  0.11661210    -0.10460
C194        C  0.00040543  0.70749915  0.14284239     0.03190
C195        C  0.99547273  0.70942435  0.19289146    -0.08980
C196        C  0.00262014  0.74973563  0.21830070     0.05690
C197        C  0.01448485  0.78826777  0.19085517    -0.08400
H198        H  0.01341588  0.74511300  0.07766903     0.11280
H199        H  0.98497227  0.67906895  0.21088837     0.08810
H200        H  0.02106145  0.82002369  0.20758976     0.08660
C201        C  0.98174511  0.71430225  0.35002401     0.05690
C202        C  0.99078149  0.71213044  0.30054187    -0.10410
C203        C  0.99609918  0.75174726  0.27238785     0.03190
C204        C  0.99404931  0.79327546  0.29691545    -0.08980
C205        C  0.98747936  0.79467758  0.34684240     0.05690
C206        C  0.98078507  0.75539203  0.37304080    -0.08400
H207        H  0.99376176  0.67918085  0.28520539     0.11280
H208        H  0.99689129  0.82495996  0.27826837     0.08810
H209        H  0.97501599  0.75679721  0.41163710     0.08660
C210        C  0.20596590  0.51405533  0.15343096     0.05690
C211        C  0.24526758  0.52052640  0.12717215    -0.10460
C212        C  0.28639153  0.51935538  0.15012382     0.03190
C213        C  0.28856362  0.51031482  0.19960793    -0.08980
C214        C  0.24893622  0.50526815  0.22780529     0.05690
C215        C  0.20738374  0.50758814  0.20336547    -0.08400
H216        H  0.24385115  0.52622627  0.08856720     0.11280
H217        H  0.32150409  0.50708051  0.21494469     0.08810
H218        H  0.17571070  0.50499187  0.22210400     0.08660
C219        C  0.21392149  0.98357332  0.35970819     0.05690
C220        C  0.21250313  0.48641766  0.30921423    -0.10460
C221        C  0.25096352  0.49865581  0.28185196     0.03190
C222        C  0.29120990  0.50602914  0.30728445    -0.08980
C223        C  0.29312779  0.00145366  0.35744738     0.05690
C224        C  0.25440086  0.99039197  0.38363154    -0.08400
H225        H  0.18082576  0.47962103  0.29239705     0.11280
H226        H  0.32147185  0.51685186  0.28928694     0.08810
H227        H  0.25559296  0.98788443  0.42256494     0.08660
C228        C  0.97282301  0.64291051  0.40558808    -0.10710
C229        C  0.97494931  0.67443645  0.37841534    -0.12270
C230        C  0.98597820  0.86658287  0.40059147    -0.10710
C231        C  0.98726344  0.83616023  0.37252033    -0.12270
C232        C  0.98904487  0.63122979  0.09610762    -0.10710
C233        C  0.99348828  0.66554953  0.11836176    -0.12270
C234        C  0.02367284  0.82791539  0.11316131    -0.10710
C235        C  0.02411926  0.86245305  0.09004814    -0.12270
C236        C  0.36947211  0.51213380  0.40403095    -0.10710
C237        C  0.33511922  0.50778246  0.38180377    -0.12270
C238        C  0.17286968  0.97707335  0.38695089    -0.10710
C239        C  0.13827188  0.97651264  0.40996218    -0.12270
C240        C  0.32626571  0.52590077  0.12164713    -0.10710
C241        C  0.35775918  0.52790172  0.09439668    -0.12270
C242        C  0.16447553  0.51416970  0.12776977    -0.10710
C243        C  0.13410391  0.51519882  0.09962904    -0.12270
O244        O  0.05854870  0.98574267  0.56977843    -0.77570
O245        O  0.42901344  0.50856829  0.57287652    -0.77600
O246        O  0.03691399  0.60527070  0.52200768    -0.77600
O247        O  0.48315607  0.92171617  0.54836000    -0.77550
O248        O  0.48918776  0.57547855  0.57414381    -0.77670
O249        O  0.05341794  0.90074275  0.53456308    -0.77590
O250        O  0.40520462  0.96156870  0.51991562    -0.77570
O251        O  0.09524916  0.53526662  0.52462333    -0.77610
C252        C  0.09145539  0.51204382  0.56314632     1.12120
C253        C  0.40021421  0.48063285  0.55992402     1.12000
C254        C  0.51826280  0.60428362  0.56354587     1.12140
C255        C  0.51702315  0.89603967  0.55754770     1.12020
O256        O  0.01559948  0.94243186  0.93030625    -0.77570
O257        O  0.49236423  0.57189153  0.92715228    -0.77650
O258        O  0.07891846  0.51755189  0.95130634    -0.77580
O259        O  0.39556136  0.96414006  0.97759469    -0.77560
O260        O  0.42539611  0.51187283  0.92576720    -0.77620
O261        O  0.10040279  0.94753505  0.96595773    -0.77580
O262        O  0.46575838  0.90574455  0.97487674    -0.77540
O263        O  0.03938773  0.59563813  0.98010585    -0.77610
Co264      Co  0.03387377  0.95723594  0.51176588     1.51530
Co265      Co  0.44713729  0.55222878  0.97522725     1.51690
Co266      Co  0.04918034  0.55445946  0.47544832     1.51570
Co267      Co  0.44630001  0.95161958  0.02418783     1.51470
O268        O  0.99916081  0.01381335  0.49985587    -1.39510
C269        C  0.98941642  0.90949522  0.93657797     1.12050
C270        C  0.52036702  0.60061704  0.94011264     1.12140
C271        C  0.10483708  0.98368615  0.94247823     1.12070
C272        C  0.39650172  0.48286214  0.93625032     1.12050
C273        C  0.01590844  0.79153803  0.65025186     0.05690
C274        C  0.01933839  0.75110650  0.62611809    -0.10460
C275        C  0.02124375  0.71107030  0.65185468     0.03190
C276        C  0.01797775  0.71125165  0.70233004    -0.08980
C277        C  0.01537479  0.75228037  0.72799113     0.05690
C278        C  0.01518524  0.79247625  0.70047724    -0.08400
H279        H  0.02077328  0.75082371  0.58705762     0.11280
H280        H  0.01730366  0.67917827  0.72047564     0.08810
H281        H  0.01518791  0.82505397  0.71693835     0.08660
C282        C  0.02088025  0.71630707  0.86115924     0.05690
C283        C  0.02255840  0.71493320  0.81074684    -0.10410
C284        C  0.01354099  0.75358172  0.78246778     0.03190
C285        C  0.00304995  0.79376239  0.80721814    -0.08980
C286        C  0.00345379  0.79569108  0.85752735     0.05690
C287        C  0.01199031  0.75682771  0.88447139    -0.08400
H288        H  0.03112869  0.68328654  0.79453007     0.11280
H289        H  0.99404956  0.82415640  0.78839892     0.08810
H290        H  0.01130926  0.75802221  0.92347680     0.08660
C291        C  0.20523063  0.49911668  0.64228974     0.05690
C292        C  0.24403429  0.49021690  0.61535445    -0.10460
C293        C  0.28446723  0.48095602  0.63868463     0.03190
C294        C  0.28578395  0.47922540  0.68908990    -0.08980
C295        C  0.24721834  0.48868855  0.71731668     0.05690
C296        C  0.20716852  0.49964621  0.69259302    -0.08400
H297        H  0.24284436  0.49081203  0.57634850     0.11280
H298        H  0.31728382  0.47020092  0.70538640     0.08810
H299        H  0.17689266  0.50899309  0.71149448     0.08660
C300        C  0.20904065  0.98497284  0.84936096     0.05690
C301        C  0.20816739  0.48615318  0.79913063    -0.10460
C302        C  0.24842790  0.48664867  0.77173835     0.03190
C303        C  0.28944069  0.48442119  0.79742971    -0.08980
C304        C  0.28959570  0.98076803  0.84790771     0.05690
C305        C  0.24947600  0.98201176  0.87356418    -0.08400
H306        H  0.17564428  0.48579749  0.78250919     0.11280
H307        H  0.32151714  0.48566760  0.77928429     0.08810
H308        H  0.24969829  0.98040544  0.91261875     0.08660
C309        C  0.02647854  0.64086038  0.91186189    -0.10710
C310        C  0.02617403  0.67542207  0.88885161    -0.12270
C311        C  0.99117207  0.87234928  0.90381118    -0.10710
C312        C  0.99562919  0.83794254  0.88149487    -0.12270
C313        C  0.02596486  0.63920701  0.59747669    -0.10710
C314        C  0.02551892  0.67019188  0.62504599    -0.12270
C315        C  0.01418218  0.83209478  0.62253142    -0.10710
C316        C  0.01415785  0.86294948  0.59460295    -0.12270
C317        C  0.36142292  0.47574525  0.90226095    -0.10710
C318        C  0.33042781  0.47647426  0.87470593    -0.12270
C319        C  0.16844211  0.98626260  0.87704596    -0.10710
C320        C  0.13770327  0.98625297  0.90513152    -0.12270
C321        C  0.32532284  0.47526005  0.61103251    -0.10710
C322        C  0.35992174  0.47469496  0.58808614    -0.12270
C323        C  0.16297468  0.50681967  0.61832552    -0.10710
C324        C  0.12855587  0.51086622  0.59596698    -0.12270
O325        O  0.57689718  0.48484402  0.05168882    -0.77570
O326        O  0.89484915  0.04029457  0.02057770    -0.77600
O327        O  0.51327374  0.06048708  0.07082851    -0.77600
O328        O  0.98972568  0.43134623  0.07351092    -0.77550
O329        O  0.96529741  0.09791991  0.02517311    -0.77670
O330        O  0.53841250  0.40714211  0.02160604    -0.77590
O331        O  0.92314065  0.49240202  0.07300200    -0.77570
O332        O  0.59935484  0.05458631  0.03774872    -0.77610
C333        C  0.60264508  0.01838601  0.06138786     1.12120
C334        C  0.89435589  0.02122526  0.06171178     1.12000
C335        C  0.98777578  0.09386784  0.06381858     1.12140
C336        C  0.01833437  0.40249963  0.06131244     1.12020
O337        O  0.51600076  0.42381960  0.44859215    -0.77570
O338        O  0.96072647  0.10604766  0.47959743    -0.77650
O339        O  0.56928212  0.01077257  0.42631978    -0.77580
O340        O  0.94015849  0.48812161  0.42919543    -0.77560
O341        O  0.90291754  0.03587526  0.47518756    -0.77620
O342        O  0.59364261  0.46238859  0.47846851    -0.77580
O343        O  0.94602574  0.40187134  0.46182403    -0.77540
O344        O  0.50808105  0.07735597  0.42684908    -0.77610
Co345      Co  0.54367666  0.46697441  0.98848996     1.51530
Co346      Co  0.94871296  0.05374357  0.52486328     1.51690
Co347      Co  0.54349353  0.03575779  0.01339752     1.51570
Co348      Co  0.96499394  0.45756897  0.48637896     1.51470
O349        O  0.48697168  0.50164744  0.00013923    -1.39510
C350        C  0.48249786  0.39825482  0.43871556     1.12050
C351        C  0.97947900  0.10635570  0.43829100     1.12140
C352        C  0.59828104  0.48239675  0.43866611     1.12070
C353        C  0.90685832  0.01359397  0.43639450     1.12050
C354        C  0.51774982  0.28690464  0.14058835     0.05690
C355        C  0.51140661  0.24633111  0.11670735    -0.10460
C356        C  0.50085502  0.20750171  0.14292506     0.03190
C357        C  0.49588693  0.20940688  0.19296906    -0.08980
C358        C  0.50288773  0.24973670  0.21838917     0.05690
C359        C  0.51467739  0.28830339  0.19095635    -0.08400
H360        H  0.51381591  0.24515186  0.07776504     0.11280
H361        H  0.48544796  0.17902176  0.21094450     0.08810
H362        H  0.52113391  0.32008307  0.20769028     0.08660
C363        C  0.48173468  0.21427891  0.35006659     0.05690
C364        C  0.49088659  0.21211248  0.30060610    -0.10410
C365        C  0.49625152  0.25173367  0.27246397     0.03190
C366        C  0.49412622  0.29325672  0.29698952    -0.08980
C367        C  0.48742887  0.29465459  0.34689410     0.05690
C368        C  0.48068935  0.25536927  0.37307830    -0.08400
H369        H  0.49391768  0.17916330  0.28528401     0.11280
H370        H  0.49701552  0.32494540  0.27836304     0.08810
H371        H  0.47483497  0.25677440  0.41166048     0.08660
C372        C  0.70597344  0.01406233  0.15353907     0.05690
C373        C  0.74528672  0.02043685  0.12726923    -0.10460
C374        C  0.78641496  0.01919275  0.15021243     0.03190
C375        C  0.78857568  0.01015099  0.19969708    -0.08980
C376        C  0.74894005  0.00522213  0.22790010     0.05690
C377        C  0.70738600  0.00763324  0.20347867    -0.08400
H378        H  0.74387478  0.02612943  0.08866303     0.11280
H379        H  0.82150803  0.00683451  0.21504572     0.08810
H380        H  0.67571571  0.00514389  0.22224668     0.08660
C381        C  0.71392443  0.48370321  0.35966020     0.05690
C382        C  0.71252731  0.98632678  0.30928973    -0.10460
C383        C  0.75096285  0.99865514  0.28194186     0.03190
C384        C  0.79117718  0.00616462  0.30737616    -0.08980
C385        C  0.79314832  0.50149884  0.35738064     0.05690
C386        C  0.75441888  0.49046605  0.38356975    -0.08400
H387        H  0.68088422  0.97941511  0.29244599     0.11280
H388        H  0.82140705  0.01707185  0.28936576     0.08810
H389        H  0.75562136  0.48793419  0.42250184     0.08660
C390        C  0.47280008  0.14287239  0.40560913    -0.10710
C391        C  0.47492857  0.17440668  0.37844685    -0.12270
C392        C  0.48589399  0.36657650  0.40060556    -0.10710
C393        C  0.48717379  0.33613753  0.37256052    -0.12270
C394        C  0.48942497  0.13124612  0.09618868    -0.10710
C395        C  0.49394683  0.16555898  0.11843310    -0.12270
C396        C  0.52381811  0.32798216  0.11326950    -0.10710
C397        C  0.52417950  0.36251413  0.09014171    -0.12270
C398        C  0.86945088  0.01227934  0.40409827    -0.10710
C399        C  0.83508544  0.00796344  0.38188779    -0.12270
C400        C  0.67288365  0.47718574  0.38692029    -0.10710
C401        C  0.63829561  0.47658604  0.40994924    -0.12270
C402        C  0.82629434  0.02572680  0.12173582    -0.10710
C403        C  0.85778700  0.02778429  0.09448500    -0.12270
C404        C  0.66448291  0.01422447  0.12787762    -0.10710
C405        C  0.63413430  0.01524871  0.09970757    -0.12270
O406        O  0.55850218  0.48564104  0.56974147    -0.77570
O407        O  0.92906084  0.00850911  0.57291916    -0.77600
O408        O  0.53688806  0.10525287  0.52200122    -0.77600
O409        O  0.98316749  0.42176606  0.54839325    -0.77550
O410        O  0.98927732  0.07542642  0.57417511    -0.77670
O411        O  0.55335996  0.40068795  0.53442342    -0.77590
O412        O  0.90519436  0.46161045  0.51993026    -0.77570
O413        O  0.59524467  0.03527634  0.52461979    -0.77610
C414        C  0.59146190  0.01207722  0.56315925     1.12120
C415        C  0.90025023  0.98059096  0.55994172     1.12000
C416        C  0.01830961  0.10426307  0.56353159     1.12140
C417        C  0.01702657  0.39606065  0.55752481     1.12020
O418        O  0.51544958  0.44234894  0.93029430    -0.77570
O419        O  0.99238580  0.07198647  0.92723295    -0.77650
O420        O  0.57894252  0.01755136  0.95121138    -0.77580
O421        O  0.89552804  0.46403109  0.97764615    -0.77560
O422        O  0.92537044  0.01208738  0.92583776    -0.77620
O423        O  0.60029481  0.44748967  0.96585176    -0.77580
O424        O  0.96568760  0.40564733  0.97497942    -0.77540
O425        O  0.53952245  0.09568470  0.98011696    -0.77610
Co426      Co  0.53383978  0.45721679  0.51168223     1.51530
Co427      Co  0.94720198  0.05233385  0.97534936     1.51690
Co428      Co  0.54916503  0.05443326  0.47544821     1.51570
Co429      Co  0.94626547  0.45157534  0.02424919     1.51470
O430        O  0.49915160  0.51383488  0.49984002    -1.39510
C431        C  0.48925289  0.40942749  0.93661747     1.12050
C432        C  0.02043291  0.10068013  0.94014977     1.12140
C433        C  0.60479088  0.48371508  0.94251634     1.12070
C434        C  0.89649871  0.98304105  0.93626539     1.12050
C435        C  0.51599688  0.29155302  0.65025526     0.05690
C436        C  0.51941715  0.25112087  0.62611609    -0.10460
C437        C  0.52121770  0.21107313  0.65184519     0.03190
C438        C  0.51785172  0.21124862  0.70231567    -0.08980
C439        C  0.51527580  0.25227674  0.72797655     0.05690
C440        C  0.51520408  0.29247960  0.70048014    -0.08400
H441        H  0.52090782  0.25084539  0.58705761     0.11280
H442        H  0.51707092  0.17917795  0.72046900     0.08810
H443        H  0.51523794  0.32504913  0.71697019     0.08660
C444        C  0.52075529  0.21633755  0.86114237     0.05690
C445        C  0.52248402  0.21495940  0.81073110    -0.10410
C446        C  0.51335148  0.25357237  0.78244300     0.03190
C447        C  0.50269550  0.29372223  0.80717057    -0.08980
C448        C  0.50308553  0.29566812  0.85748044     0.05690
C449        C  0.51172006  0.25683498  0.88443690    -0.08400
H450        H  0.53120000  0.18334885  0.79451231     0.11280
H451        H  0.49360371  0.32407711  0.78831960     0.08810
H452        H  0.51102981  0.25803980  0.92344190     0.08660
C453        C  0.70526620  0.99920583  0.64225980     0.05690
C454        C  0.74406093  0.99025543  0.61532236    -0.10460
C455        C  0.78448169  0.98093075  0.63865551     0.03190
C456        C  0.78578873  0.97917265  0.68905877    -0.08980
C457        C  0.74724035  0.98870467  0.71727686     0.05690
C458        C  0.70721403  0.99974233  0.69255964    -0.08400
H459        H  0.74287225  0.99085571  0.57631706     0.11280
H460        H  0.81726394  0.97007495  0.70537431     0.08810
H461        H  0.67695581  0.00915129  0.71148649     0.08660
C462        C  0.70905770  0.48508627  0.84946742     0.05690
C463        C  0.70817656  0.98601749  0.79905573    -0.10460
C464        C  0.74844249  0.98664977  0.77168700     0.03190
C465        C  0.78945436  0.98455651  0.79738808    -0.08980
C466        C  0.78959129  0.48058562  0.84796894     0.05690
C467        C  0.74949271  0.48199363  0.87364939    -0.08400
H468        H  0.67565797  0.98554538  0.78239701     0.11280
H469        H  0.82152783  0.98591423  0.77923735     0.08810
H470        H  0.74973000  0.48040123  0.91270441     0.08660
C471        C  0.52654023  0.14094642  0.91190809    -0.10710
C472        C  0.52616843  0.17548467  0.88885968    -0.12270
C473        C  0.49087458  0.37230868  0.90380807    -0.10710
C474        C  0.49524903  0.33791748  0.88144687    -0.12270
C475        C  0.52593005  0.13920288  0.59746707    -0.10710
C476        C  0.52547620  0.17019312  0.62503188    -0.12270
C477        C  0.51428790  0.33211507  0.62254113    -0.10710
C478        C  0.51422296  0.36296635  0.59460752    -0.12270
C479        C  0.86141646  0.97596757  0.90226207    -0.10710
C480        C  0.83043300  0.97668998  0.87468787    -0.12270
C481        C  0.66846947  0.48643170  0.87716947    -0.10710
C482        C  0.63771023  0.48637668  0.90523003    -0.12270
C483        C  0.82534034  0.97521058  0.61101569    -0.10710
C484        C  0.85995252  0.97464556  0.58809301    -0.12270
C485        C  0.66300618  0.00691751  0.61830622    -0.10710
C486        C  0.62857193  0.01093755  0.59596909    -0.12270
O487        O  0.57695089  0.98492996  0.05172093    -0.77570
O488        O  0.89479722  0.54023646  0.02050651    -0.77600
O489        O  0.51299867  0.56046812  0.07082286    -0.77600
O490        O  0.98964210  0.93126092  0.07342668    -0.77550
O491        O  0.96514538  0.59791335  0.02504568    -0.77670
O492        O  0.53850331  0.90723086  0.02156047    -0.77590
O493        O  0.92309174  0.99226640  0.07293120    -0.77570
O494        O  0.59914404  0.55459063  0.03790779    -0.77610
C495        C  0.60252709  0.51833489  0.06143097     1.12120
C496        C  0.89435896  0.52129586  0.06170834     1.12000
C497        C  0.98754277  0.59388395  0.06374836     1.12140
C498        C  0.01826915  0.90242306  0.06127399     1.12020
O499        O  0.51608776  0.92369237  0.44878786    -0.77570
O500        O  0.96074366  0.60604914  0.47964884    -0.77650
O501        O  0.56936088  0.51090052  0.42640153    -0.77580
O502        O  0.94020973  0.98804903  0.42917403    -0.77560
O503        O  0.90291614  0.53592898  0.47528513    -0.77620
O504        O  0.59365483  0.96240600  0.47851333    -0.77580
O505        O  0.94607505  0.90182566  0.46186371    -0.77540
O506        O  0.50830575  0.57750944  0.42690032    -0.77610
Co507      Co  0.54376073  0.96708751  0.98851187     1.51530
Co508      Co  0.94875924  0.55374635  0.52492227     1.51690
Co509      Co  0.54334730  0.53570476  0.01347857     1.51570
Co510      Co  0.96501527  0.95754362  0.48639842     1.51470
O511        O  0.48704527  0.00175454  0.00016788    -1.39510
C512        C  0.48254233  0.89824866  0.43870156     1.12050
C513        C  0.97941144  0.60633181  0.43829806     1.12140
C514        C  0.59822829  0.98230257  0.43863553     1.12070
C515        C  0.90684422  0.51371019  0.43644940     1.12050
C516        C  0.51761558  0.78688517  0.14038189     0.05690
C517        C  0.51109091  0.74633301  0.11651090    -0.10460
C518        C  0.50046099  0.70753413  0.14275060     0.03190
C519        C  0.49556319  0.70946896  0.19280467    -0.08980
C520        C  0.50277304  0.74977373  0.21820579     0.05690
C521        C  0.51465717  0.78829164  0.19075446    -0.08400
H522        H  0.51344591  0.74514439  0.07756581     0.11280
H523        H  0.48503697  0.67912899  0.21081905     0.08810
H524        H  0.52128540  0.82003601  0.20749423     0.08660
C525        C  0.48200608  0.71435480  0.34994380     0.05690
C526        C  0.49104035  0.71218153  0.30046131    -0.10410
C527        C  0.49628860  0.75179825  0.27229486     0.03190
C528        C  0.49418677  0.79333439  0.29680825    -0.08980
C529        C  0.48763514  0.79474021  0.34674104     0.05690
C530        C  0.48100279  0.75544943  0.37294869    -0.08400
H531        H  0.49406357  0.67923310  0.28512565     0.11280
H532        H  0.49696326  0.82501596  0.27814040     0.08810
H533        H  0.47523231  0.75685543  0.41154482     0.08660
C534        C  0.70595802  0.51413925  0.15347767     0.05690
C535        C  0.74526810  0.52050763  0.12719708    -0.10460
C536        C  0.78639145  0.51941272  0.15016104     0.03190
C537        C  0.78855449  0.51052786  0.19967458    -0.08980
C538        C  0.74892348  0.50559053  0.22788008     0.05690
C539        C  0.70737200  0.50785697  0.20343861    -0.08400
H540        H  0.74385785  0.52608300  0.08857233     0.11280
H541        H  0.82148971  0.50732400  0.21503835     0.08810
H542        H  0.67570179  0.50535995  0.22220453     0.08660
C543        C  0.71389649  0.98328015  0.35965094     0.05690
C544        C  0.71252964  0.48677045  0.30930119    -0.10460
C545        C  0.75095038  0.49911471  0.28193549     0.03190
C546        C  0.79116733  0.50665837  0.30735801    -0.08980
C547        C  0.79313881  0.00102087  0.35740088     0.05690
C548        C  0.75439035  0.99001771  0.38357824    -0.08400
H549        H  0.68088536  0.47983185  0.29247477     0.11280
H550        H  0.82139133  0.51756893  0.28934083     0.08810
H551        H  0.75557085  0.98752198  0.42251341     0.08660
C552        C  0.47302686  0.64298088  0.40553344    -0.10710
C553        C  0.47520525  0.67449334  0.37834426    -0.12270
C554        C  0.48601663  0.86661288  0.40054128    -0.10710
C555        C  0.48735299  0.83622337  0.37242631    -0.12270
C556        C  0.48903041  0.63124381  0.09605757    -0.10710
C557        C  0.49350161  0.66558012  0.11828195    -0.12270
C558        C  0.52377602  0.82794783  0.11306858    -0.10710
C559        C  0.52420120  0.86250907  0.08999748    -0.12270
C560        C  0.86946821  0.51255090  0.40410732    -0.10710
C561        C  0.83511019  0.50836253  0.38185800    -0.12270
C562        C  0.67282113  0.97688353  0.38688785    -0.10710
C563        C  0.63821608  0.97640184  0.40989267    -0.12270
C564        C  0.82627558  0.52591034  0.12168721    -0.10710
C565        C  0.85778989  0.52790619  0.09446380    -0.12270
C566        C  0.66446226  0.51418762  0.12782054    -0.10710
C567        C  0.63407294  0.51516796  0.09969729    -0.12270
O568        O  0.55859798  0.98584605  0.56977250    -0.77570
O569        O  0.92911506  0.50850100  0.57298088    -0.77600
O570        O  0.53691001  0.60528112  0.52214948    -0.77600
O571        O  0.98316264  0.92177682  0.54843072    -0.77550
O572        O  0.98940363  0.57539283  0.57418001    -0.77670
O573        O  0.55348382  0.90078907  0.53468943    -0.77590
O574        O  0.90518757  0.96157707  0.51989273    -0.77570
O575        O  0.59522619  0.53518189  0.52481635    -0.77610
C576        C  0.59141677  0.51182231  0.56324442     1.12120
C577        C  0.90029484  0.48058667  0.56000705     1.12000
C578        C  0.01842492  0.60422772  0.56348521     1.12140
C579        C  0.01700062  0.89603107  0.55750786     1.12020
O580        O  0.51554402  0.94249491  0.93029989    -0.77570
O581        O  0.99233422  0.57191434  0.92715861    -0.77650
O582        O  0.57892464  0.51750622  0.95136720    -0.77580
O583        O  0.89554897  0.96407716  0.97749300    -0.77560
O584        O  0.92537353  0.51188788  0.92583597    -0.77620
O585        O  0.60038224  0.94759704  0.96586564    -0.77580
O586        O  0.96576459  0.90567375  0.97480699    -0.77540
O587        O  0.53939050  0.59560002  0.98013432    -0.77610
Co588      Co  0.53390454  0.95724253  0.51182346     1.51530
Co589      Co  0.94713780  0.55225740  0.97526771     1.51690
Co590      Co  0.54923653  0.55448503  0.47558490     1.51570
Co591      Co  0.94626180  0.95154100  0.02411673     1.51470
O592        O  0.49916518  0.01377398  0.49985350    -1.39510
C593        C  0.48936937  0.90955742  0.93661888     1.12050
C594        C  0.02035017  0.60063794  0.94008991     1.12140
C595        C  0.60481888  0.98375894  0.94240760     1.12070
C596        C  0.89650669  0.48285747  0.93634735     1.12050
C597        C  0.51575372  0.79160183  0.65037624     0.05690
C598        C  0.51908429  0.75116566  0.62623518    -0.10460
C599        C  0.52093273  0.71112044  0.65196131     0.03190
C600        C  0.51768207  0.71129669  0.70243735    -0.08980
C601        C  0.51517955  0.75232453  0.72810537     0.05690
C602        C  0.51506577  0.79253012  0.70060466    -0.08400
H603        H  0.52051012  0.75088709  0.58717436     0.11280
H604        H  0.51695290  0.67922384  0.72058516     0.08810
H605        H  0.51516525  0.82510145  0.71708578     0.08660
C606        C  0.52083111  0.71633692  0.86125826     0.05690
C607        C  0.52247073  0.71497027  0.81084315    -0.10410
C608        C  0.51338909  0.75361260  0.78257896     0.03190
C609        C  0.50288126  0.79377941  0.80733638    -0.08980
C610        C  0.50334531  0.79571146  0.85764215     0.05690
C611        C  0.51193660  0.75685400  0.88458059    -0.08400
H612        H  0.53106321  0.68333684  0.79460591     0.11280
H613        H  0.49382460  0.82415904  0.78851484     0.08810
H614        H  0.51129389  0.75805007  0.92358618     0.08660
C615        C  0.70522098  0.49847239  0.64233285     0.05690
C616        C  0.74406111  0.48967361  0.61541619    -0.10460
C617        C  0.78452016  0.48056746  0.63876679     0.03190
C618        C  0.78582857  0.47888523  0.68917458    -0.08980
C619        C  0.74722252  0.48823005  0.71738953     0.05690
C620        C  0.70713866  0.49901278  0.69263770    -0.08400
H621        H  0.74288793  0.49027114  0.57640977     0.11280
H622        H  0.81736706  0.47001593  0.70547328     0.08810
H623        H  0.67682328  0.50827569  0.71150602     0.08660
C624        C  0.70901071  0.98507171  0.84927831     0.05690
C625        C  0.70819051  0.48593788  0.79923999    -0.10460
C626        C  0.74844265  0.48631294  0.77182485     0.03190
C627        C  0.78945925  0.48410458  0.79751615    -0.08980
C628        C  0.78957036  0.98088316  0.84783177     0.05690
C629        C  0.74944468  0.98206754  0.87348404    -0.08400
H630        H  0.67565764  0.48557750  0.78264905     0.11280
H631        H  0.82153787  0.48524820  0.77937402     0.08810
H632        H  0.74966087  0.98039093  0.91253523     0.08660
C633        C  0.52648351  0.64086619  0.91192024    -0.10710
C634        C  0.52616056  0.67544588  0.88893804    -0.12270
C635        C  0.49109946  0.87239322  0.90388179    -0.10710
C636        C  0.49553562  0.83796614  0.88160120    -0.12270
C637        C  0.52570954  0.63926987  0.59755857    -0.10710
C638        C  0.52520355  0.67024590  0.62514168    -0.12270
C639        C  0.51411616  0.83216265  0.62264886    -0.10710
C640        C  0.51415008  0.86298912  0.59467965    -0.12270
C641        C  0.86144449  0.47567094  0.90236216    -0.10710
C642        C  0.83045575  0.47634486  0.87480171    -0.12270
C643        C  0.66840819  0.98634212  0.87695818    -0.10710
C644        C  0.63767101  0.98633162  0.90504632    -0.12270
C645        C  0.82541660  0.47503185  0.61113723    -0.10710
C646        C  0.86002863  0.47458117  0.58820536    -0.12270
C647        C  0.66297236  0.50621288  0.61835329    -0.10710
C648        C  0.62854960  0.51041638  0.59602523    -0.12270
loop_ 
_geom_bond_atom_site_label_1 
_geom_bond_atom_site_label_2 
_geom_bond_distance 
_geom_bond_site_symmetry_2 
_ccdc_geom_bond_type 
O1          Co21   2.096   1_554  S
O1          C171   1.292       .  A
O2         Co103   2.028   1_554  S
O2           C10   1.273       .  A
O3          Co23   1.973       .  S
O3          C335   1.266   1_455  A
O4         Co105   1.982       .  S
O4           C12   1.256       .  A
O5         Co103   2.026   1_554  S
O5           C11   1.275       .  A
O6          Co21   2.008   1_554  S
O6          C336   1.260       .  A
O7         Co105   1.949       .  S
O7          C172   1.254       .  A
O8          Co23   1.892       .  S
O8            C9   1.264       .  A
C9          O163   1.292   1_545  A
C9           C81   1.428       .  S
C10         O169   1.254   1_545  A
C10          C79   1.429       .  S
C11         O327   1.266       .  A
C11         C394   1.438       .  S
C12         O330   1.260       .  A
C12         C397   1.441       .  S
O13        Co102   2.097       .  S
O13          C26   1.292   1_455  A
O14         Co22   2.028       .  S
O14          C27   1.273       .  A
O15        Co104   1.982       .  S
O15         C190   1.257   1_545  A
O16         Co24   1.974       .  S
O16         C191   1.267       .  A
O17         Co22   2.025       .  S
O17          C29   1.275       .  A
O18        Co102   2.008       .  S
O18          C28   1.260       .  A
O19         Co24   1.892       .  S
O19         C350   1.264       .  A
O20        Co104   1.949       .  S
O20         C351   1.254   1_455  A
Co21         O94   1.977       .  S
Co21         O99   1.889       .  S
Co21         O25   2.005   1_456  S
Co22         O83   1.978       .  S
Co22         O86   1.951       .  S
Co22        O592   2.037       .  S
Co23         O96   2.093   1_554  S
Co23        O101   2.010   1_554  S
Co23        O187   2.007   1_455  S
Co24         O85   2.094       .  S
Co24         O88   2.010       .  S
Co24        O430   2.006       .  S
O25        Co589   2.038   1_554  S
O25        Co185   2.006   1_655  S
O25        Co429   2.036       .  S
C26         O343   1.264       .  A
C26          C68   1.428       .  S
C27         O344   1.255       .  A
C27         C390   1.429       .  S
C28         O177   1.257       .  A
C28          C77   1.441       .  S
C29         O178   1.267   1_545  A
C29          C74   1.438       .  S
C30          C72   1.448       .  S
C30          C31   1.399       .  A
C30          C35   1.403       .  A
C31          C32   1.399       .  A
C31          H36   1.085       .  S
C32          C71   1.445   1_455  S
C32          C33   1.399   1_455  A
C33          C34   1.417   1_655  A
C33          H37   1.077       .  S
C34          C35   1.419       .  A
C34          C41   1.516   1_455  S
C35          H38   1.078       .  S
C39          C67   1.436       .  S
C39          C40   1.401       .  A
C39          C44   1.387       .  A
C40          C41   1.421       .  A
C40          H45   1.077       .  S
C41          C42   1.420       .  A
C42          C43   1.400       .  A
C42          H46   1.078       .  S
C43          C69   1.433       .  S
C43          C44   1.389       .  A
C44          H47   1.086       .  S
C48          C80   1.433       .  S
C48          C49   1.389       .  A
C48          C53   1.400       .  A
C49          C50   1.387       .  A
C49          H54   1.086       .  S
C50          C78   1.437       .  S
C50          C51   1.401       .  A
C51          C52   1.421       .  A
C51          H55   1.078       .  S
C52          C53   1.419       .  A
C52          C59   1.514   1_545  S
C53          H56   1.078       .  S
C57          C76   1.448       .  S
C57          C62   1.399       .  A
C57         C220   1.402       .  A
C58          C59   1.418       .  A
C58         C219   1.402       .  A
C58          H63   1.078       .  S
C59          C60   1.416   1_565  A
C60         C223   1.399       .  A
C60          H64   1.078       .  S
C61         C237   1.445       .  S
C61          C62   1.399       .  A
C61         C222   1.399       .  A
C62          H65   1.085       .  S
C66         C351   1.429       .  S
C66          C67   1.203       .  T
C68          C69   1.202       .  T
C70         C335   1.438       .  S
C70          C71   1.209       .  T
C72          C73   1.210       .  T
C73         C336   1.441       .  S
C74          C75   1.208       .  T
C75         C223   1.445       .  S
C76          C77   1.210       .  T
C78          C79   1.203       .  T
C80          C81   1.202       .  T
O82        Co102   1.977       .  S
O82         C252   1.268       .  A
O83          C91   1.256   1_545  A
O84        Co104   2.031       .  S
O84         C416   1.274       .  A
O85          C93   1.292       .  A
O86          C92   1.255       .  A
O87        Co102   1.888       .  S
O87         C417   1.263       .  A
O88         C253   1.260       .  A
O89        Co104   2.024       .  S
O89          C90   1.275       .  A
C90         O244   1.268   1_545  A
C90         C162   1.440       .  S
C91         O250   1.260       .  A
C91         C160   1.440       .  S
C92         O408   1.274       .  A
C92         C475   1.432       .  S
C93         O411   1.263       .  A
C93         C478   1.424       .  S
O94         C107   1.268   1_455  A
O95        Co103   1.978       .  S
O95         C108   1.255       .  A
O96         C271   1.291   1_545  A
O97        Co105   2.031   1_556  S
O97         C272   1.274       .  A
O98        Co103   1.950       .  S
O98         C110   1.255   1_545  A
O99         C109   1.263       .  A
O100       Co105   2.024   1_556  S
O100        C431   1.275       .  A
O101        C432   1.260       .  A
Co102       O106   2.003   1_455  S
Co103       O511   2.038   1_556  S
Co104       O268   2.035   1_455  S
Co105       O349   2.036       .  S
O106       Co508   2.037       .  S
O106       Co266   2.035   1_655  S
O106       Co348   2.006       .  S
C107        O424   1.275       .  A
C107        C149   1.440       .  S
C108        O425   1.260       .  A
C108        C471   1.440       .  S
C109        O258   1.291       .  A
C109        C158   1.424       .  S
C110        O259   1.274       .  A
C110        C155   1.433       .  S
C111        C153   1.430       .  S
C111        C112   1.388       .  A
C111        C116   1.396       .  A
C112        C113   1.389       .  A
C112        H117   1.086       .  S
C113        C152   1.439       .  S
C113        C114   1.405       .  A
C114        C115   1.423       .  A
C114        H118   1.078       .  S
C115        C116   1.417       .  A
C115        C122   1.515       .  S
C116        H119   1.078       .  S
C120        C148   1.446       .  S
C120        C121   1.402       .  A
C120        C125   1.399       .  A
C121        C122   1.416       .  A
C121        H126   1.078       .  S
C122        C123   1.419       .  A
C123        C124   1.400       .  A
C123        H127   1.078   1_455  S
C124        C150   1.447   1_455  S
C124        C125   1.399       .  A
C125        H128   1.085       .  S
C129        C161   1.447   1_565  S
C129        C130   1.399       .  A
C129        C134   1.400       .  A
C130        C131   1.400       .  A
C130        H135   1.085       .  S
C131        C159   1.446       .  S
C131        C132   1.402       .  A
C132        C133   1.416       .  A
C132        H136   1.079       .  S
C133        C134   1.419       .  A
C133        C140   1.513       .  S
C134        H137   1.078   1_565  S
C138        C157   1.430       .  S
C138        C301   1.396       .  A
C138        C143   1.388       .  A
C139        C300   1.396       .  A
C139        C140   1.417       .  A
C139        H144   1.078       .  S
C140        C141   1.422       .  A
C141        C304   1.405       .  A
C141        H145   1.079       .  S
C142        C318   1.439       .  S
C142        C303   1.405       .  A
C142        C143   1.389       .  A
C143        H146   1.086       .  S
C147        C432   1.440       .  S
C147        C148   1.209       .  T
C149        C150   1.210       .  T
C151        C416   1.433       .  S
C151        C152   1.205       .  T
C153        C154   1.199       .  T
C154        C417   1.424       .  S
C155        C156   1.205       .  T
C156        C304   1.439       .  S
C157        C158   1.199       .  T
C159        C160   1.209       .  T
C161        C162   1.210       .  T
O163       Co183   2.096   1_554  S
O164       Co265   2.028   1_554  S
O164        C172   1.273       .  A
O165       Co185   1.973       .  S
O165        C497   1.267   1_455  A
O166       Co267   1.982       .  S
O166        C174   1.256       .  A
O167       Co265   2.026   1_554  S
O167        C173   1.275       .  A
O168       Co183   2.008   1_554  S
O168        C498   1.259       .  A
O169       Co267   1.949       .  S
O170       Co185   1.892       .  S
O170        C171   1.264       .  A
C171        C243   1.428       .  S
C172        C241   1.429       .  S
C173        O489   1.267       .  A
C173        C556   1.438       .  S
C174        O492   1.259       .  A
C174        C559   1.441       .  S
O175       Co264   2.097       .  S
O175        C188   1.292   1_455  A
O176       Co184   2.028       .  S
O176        C189   1.273       .  A
O177       Co266   1.982       .  S
O178       Co186   1.974       .  S
O179       Co184   2.026       .  S
O179        C191   1.275       .  A
O180       Co264   2.008       .  S
O180        C190   1.260       .  A
O181       Co186   1.891       .  S
O181        C512   1.264       .  A
O182       Co266   1.949       .  S
O182        C513   1.254   1_455  A
Co183       O256   1.977       .  S
Co183       O261   1.889       .  S
Co183       O187   2.006   1_466  S
Co184       O245   1.978       .  S
Co184       O248   1.951       .  S
Co184       O430   2.037       .  S
Co185       O258   2.093   1_554  S
Co185       O263   2.010   1_554  S
Co186       O247   2.094       .  S
Co186       O250   2.010       .  S
Co186       O592   2.005   1_565  S
O187       Co427   2.038   1_554  S
O187       Co591   2.036   1_545  S
C188        O505   1.264       .  A
C188        C230   1.428       .  S
C189        O506   1.254       .  A
C189        C552   1.429       .  S
C190        C239   1.441       .  S
C191        C236   1.438       .  S
C192        C234   1.448       .  S
C192        C193   1.399       .  A
C192        C197   1.403       .  A
C193        C194   1.399       .  A
C193        H198   1.085       .  S
C194        C233   1.445   1_455  S
C194        C195   1.399   1_455  A
C195        C196   1.417   1_655  A
C195        H199   1.077       .  S
C196        C197   1.419       .  A
C196        C203   1.515   1_455  S
C197        H200   1.078       .  S
C201        C229   1.436       .  S
C201        C202   1.401       .  A
C201        C206   1.387       .  A
C202        C203   1.421       .  A
C202        H207   1.078       .  S
C203        C204   1.420       .  A
C204        C205   1.400       .  A
C204        H208   1.078       .  S
C205        C231   1.433       .  S
C205        C206   1.389       .  A
C206        H209   1.086       .  S
C210        C242   1.433       .  S
C210        C211   1.389       .  A
C210        C215   1.400       .  A
C211        C212   1.387       .  A
C211        H216   1.086       .  S
C212        C240   1.436       .  S
C212        C213   1.401       .  A
C213        C214   1.421       .  A
C213        H217   1.078       .  S
C214        C215   1.419       .  A
C214        C221   1.515       .  S
C215        H218   1.078       .  S
C219        C238   1.447       .  S
C219        C224   1.399       .  A
C220        C221   1.419       .  A
C220        H225   1.078       .  S
C221        C222   1.417       .  A
C222        H226   1.078       .  S
C223        C224   1.399   1_545  A
C224        H227   1.085       .  S
C228        C513   1.429       .  S
C228        C229   1.203       .  T
C230        C231   1.202       .  T
C232        C497   1.438       .  S
C232        C233   1.208       .  T
C234        C235   1.210       .  T
C235        C498   1.441       .  S
C236        C237   1.209       .  T
C238        C239   1.210       .  T
C240        C241   1.203       .  T
C242        C243   1.202       .  T
O244       Co264   1.977       .  S
O245        C253   1.256       .  A
O246       Co266   2.031       .  S
O246        C578   1.274       .  A
O247        C255   1.292       .  A
O248        C254   1.255       .  A
O249       Co264   1.888       .  S
O249        C579   1.263       .  A
O251       Co266   2.024       .  S
O251        C252   1.275       .  A
C252        C324   1.440       .  S
C253        C322   1.440       .  S
C254        O570   1.274       .  A
C254        C637   1.433       .  S
C255        O573   1.263       .  A
C255        C640   1.424       .  S
O256        C269   1.268   1_455  A
O257       Co265   1.978       .  S
O257        C270   1.256       .  A
O259       Co267   2.031   1_556  S
O260       Co265   1.950       .  S
O260        C272   1.255       .  A
O261        C271   1.263       .  A
O262       Co267   2.024   1_556  S
O262        C593   1.275       .  A
O263        C594   1.260       .  A
Co264       O268   2.004   1_465  S
Co265       O349   2.038   1_556  S
Co267       O511   2.036   1_565  S
O268       Co346   2.037       .  S
O268       Co510   2.006   1_545  S
C269        O586   1.275       .  A
C269        C311   1.440       .  S
C270        O587   1.260       .  A
C270        C633   1.440       .  S
C271        C320   1.424       .  S
C272        C317   1.433       .  S
C273        C315   1.430       .  S
C273        C274   1.388       .  A
C273        C278   1.396       .  A
C274        C275   1.389       .  A
C274        H279   1.086       .  S
C275        C314   1.439       .  S
C275        C276   1.405       .  A
C276        C277   1.423       .  A
C276        H280   1.078       .  S
C277        C278   1.417       .  A
C277        C284   1.515       .  S
C278        H281   1.077       .  S
C282        C310   1.446       .  S
C282        C283   1.402       .  A
C282        C287   1.399       .  A
C283        C284   1.416       .  A
C283        H288   1.078       .  S
C284        C285   1.419       .  A
C285        C286   1.400       .  A
C285        H289   1.077   1_455  S
C286        C312   1.448   1_455  S
C286        C287   1.399       .  A
C287        H290   1.085       .  S
C291        C323   1.447       .  S
C291        C292   1.399       .  A
C291        C296   1.400       .  A
C292        C293   1.399       .  A
C292        H297   1.085       .  S
C293        C321   1.446       .  S
C293        C294   1.402       .  A
C294        C295   1.416       .  A
C294        H298   1.079       .  S
C295        C296   1.419       .  A
C295        C302   1.514       .  S
C296        H299   1.078       .  S
C300        C319   1.430       .  S
C300        C305   1.388       .  A
C301        C302   1.417       .  A
C301        H306   1.078       .  S
C302        C303   1.422       .  A
C303        H307   1.079       .  S
C304        C305   1.389       .  A
C305        H308   1.086       .  S
C309        C594   1.440       .  S
C309        C310   1.209       .  T
C311        C312   1.210       .  T
C313        C578   1.432       .  S
C313        C314   1.205       .  T
C315        C316   1.199       .  T
C316        C579   1.424       .  S
C317        C318   1.205       .  T
C319        C320   1.199       .  T
C321        C322   1.209       .  T
C323        C324   1.209       .  T
O325       Co345   2.097   1_554  S
O325        C495   1.292       .  A
O326       Co427   2.028   1_554  S
O326        C334   1.273       .  A
O327       Co347   1.973       .  S
O328       Co429   1.982       .  S
O328        C336   1.256   1_655  A
O329       Co427   2.026   1_554  S
O329        C335   1.275       .  A
O330       Co345   2.008   1_554  S
O331       Co429   1.949       .  S
O331        C496   1.254       .  A
O332       Co347   1.892       .  S
O332        C333   1.264       .  A
C333        O487   1.292   1_545  A
C333        C405   1.428       .  S
C334        O493   1.254   1_545  A
C334        C403   1.429       .  S
O337       Co426   2.096       .  S
O337        C350   1.292       .  A
O338       Co346   2.028       .  S
O338        C351   1.273       .  A
O339       Co428   1.982       .  S
O339        C514   1.257   1_545  A
O340       Co348   1.974       .  S
O340        C515   1.267       .  A
O341       Co346   2.025       .  S
O341        C353   1.275       .  A
O342       Co426   2.008       .  S
O342        C352   1.260       .  A
O343       Co348   1.891       .  S
O344       Co428   1.949       .  S
Co345       O418   1.977       .  S
Co345       O423   1.889       .  S
Co345       O349   2.005   1_556  S
Co346       O407   1.978       .  S
Co346       O410   1.951       .  S
Co347       O420   2.093   1_554  S
Co347       O425   2.010   1_554  S
Co347       O511   2.007       .  S
Co348       O409   2.094       .  S
Co348       O412   2.010       .  S
O349       Co509   2.006       .  S
C350        C392   1.427       .  S
C352        O501   1.256       .  A
C352        C401   1.441       .  S
C353        O502   1.267   1_545  A
C353        C398   1.438       .  S
C354        C396   1.448       .  S
C354        C355   1.399       .  A
C354        C359   1.403       .  A
C355        C356   1.399       .  A
C355        H360   1.085       .  S
C356        C395   1.445       .  S
C356        C357   1.399       .  A
C357        C358   1.417       .  A
C357        H361   1.077       .  S
C358        C359   1.419       .  A
C358        C365   1.515       .  S
C359        H362   1.078       .  S
C363        C391   1.436       .  S
C363        C364   1.401       .  A
C363        C368   1.387       .  A
C364        C365   1.421       .  A
C364        H369   1.077       .  S
C365        C366   1.419       .  A
C366        C367   1.400       .  A
C366        H370   1.078       .  S
C367        C393   1.433       .  S
C367        C368   1.389       .  A
C368        H371   1.086       .  S
C372        C404   1.433       .  S
C372        C373   1.389       .  A
C372        C377   1.400       .  A
C373        C374   1.387       .  A
C373        H378   1.086       .  S
C374        C402   1.437       .  S
C374        C375   1.401       .  A
C375        C376   1.421       .  A
C375        H379   1.078       .  S
C376        C377   1.419       .  A
C376        C383   1.514   1_545  S
C377        H380   1.078       .  S
C381        C400   1.447       .  S
C381        C544   1.402       .  A
C381        C386   1.399       .  A
C382        C543   1.402       .  A
C382        C383   1.418       .  A
C382        H387   1.078       .  S
C383        C384   1.417   1_565  A
C384        C547   1.399       .  A
C384        H388   1.078       .  S
C385        C561   1.445       .  S
C385        C546   1.399       .  A
C385        C386   1.399       .  A
C386        H389   1.085       .  S
C390        C391   1.203       .  T
C392        C393   1.201       .  T
C394        C395   1.208       .  T
C396        C397   1.210       .  T
C398        C399   1.209       .  T
C399        C547   1.445       .  S
C400        C401   1.210       .  T
C402        C403   1.203       .  T
C404        C405   1.202       .  T
O406       Co426   1.977       .  S
O406        C576   1.268       .  A
O407        C415   1.256   1_545  A
O408       Co428   2.031       .  S
O409        C417   1.292   1_655  A
O410        C416   1.255   1_655  A
O411       Co426   1.888       .  S
O412        C577   1.260       .  A
O413       Co428   2.024       .  S
O413        C414   1.275       .  A
C414        O568   1.268   1_545  A
C414        C486   1.440       .  S
C415        O574   1.260       .  A
C415        C484   1.440       .  S
O418        C431   1.268       .  A
O419       Co427   1.978       .  S
O419        C432   1.255   1_655  A
O420        C595   1.291   1_545  A
O421       Co429   2.031   1_556  S
O421        C596   1.274       .  A
O422       Co427   1.950       .  S
O422        C434   1.255   1_545  A
O423        C433   1.263       .  A
O424       Co429   2.024   1_556  S
Co426       O430   2.004       .  S
Co428       O592   2.035       .  S
O430       Co590   2.035       .  S
C431        C473   1.440       .  S
C433        O582   1.291       .  A
C433        C482   1.424       .  S
C434        O583   1.274       .  A
C434        C479   1.433       .  S
C435        C477   1.430       .  S
C435        C436   1.388       .  A
C435        C440   1.396       .  A
C436        C437   1.389       .  A
C436        H441   1.086       .  S
C437        C476   1.439       .  S
C437        C438   1.405       .  A
C438        C439   1.423       .  A
C438        H442   1.078       .  S
C439        C440   1.417       .  A
C439        C446   1.515       .  S
C440        H443   1.077       .  S
C444        C472   1.446       .  S
C444        C445   1.402       .  A
C444        C449   1.399       .  A
C445        C446   1.416       .  A
C445        H450   1.078       .  S
C446        C447   1.419       .  A
C447        C448   1.400       .  A
C447        H451   1.078       .  S
C448        C474   1.447       .  S
C448        C449   1.399       .  A
C449        H452   1.085       .  S
C453        C485   1.447   1_565  S
C453        C454   1.399       .  A
C453        C458   1.399       .  A
C454        C455   1.400       .  A
C454        H459   1.085       .  S
C455        C483   1.446       .  S
C455        C456   1.402       .  A
C456        C457   1.416       .  A
C456        H460   1.079       .  S
C457        C458   1.419       .  A
C457        C464   1.513       .  S
C458        H461   1.078   1_565  S
C462        C481   1.430       .  S
C462        C625   1.396       .  A
C462        C467   1.388       .  A
C463        C624   1.396       .  A
C463        C464   1.417       .  A
C463        H468   1.078       .  S
C464        C465   1.422       .  A
C465        C628   1.405       .  A
C465        H469   1.079       .  S
C466        C642   1.439       .  S
C466        C627   1.405       .  A
C466        C467   1.389       .  A
C467        H470   1.086       .  S
C471        C472   1.209       .  T
C473        C474   1.210       .  T
C475        C476   1.205       .  T
C477        C478   1.199       .  T
C479        C480   1.205       .  T
C480        C628   1.439       .  S
C481        C482   1.199       .  T
C483        C484   1.209       .  T
C485        C486   1.209       .  T
O487       Co507   2.096   1_554  S
O488       Co589   2.028   1_554  S
O488        C496   1.273       .  A
O489       Co509   1.973       .  S
O490       Co591   1.982       .  S
O490        C498   1.256   1_655  A
O491       Co589   2.026   1_554  S
O491        C497   1.275       .  A
O492       Co507   2.008   1_554  S
O493       Co591   1.949       .  S
O494       Co509   1.892       .  S
O494        C495   1.264       .  A
C495        C567   1.428       .  S
C496        C565   1.429       .  S
O499       Co588   2.097       .  S
O499        C512   1.292       .  A
O500       Co508   2.028       .  S
O500        C513   1.273       .  A
O501       Co590   1.982       .  S
O502       Co510   1.974       .  S
O503       Co508   2.025       .  S
O503        C515   1.275       .  A
O504       Co588   2.008       .  S
O504        C514   1.260       .  A
O505       Co510   1.891       .  S
O506       Co590   1.949       .  S
Co507       O580   1.977       .  S
Co507       O585   1.889       .  S
Co507       O511   2.005   1_566  S
Co508       O569   1.978       .  S
Co508       O572   1.951       .  S
Co509       O582   2.093   1_554  S
Co509       O587   2.010   1_554  S
Co510       O571   2.094       .  S
Co510       O574   2.010       .  S
C512        C554   1.428       .  S
C514        C563   1.441       .  S
C515        C560   1.438       .  S
C516        C558   1.448       .  S
C516        C517   1.399       .  A
C516        C521   1.403       .  A
C517        C518   1.399       .  A
C517        H522   1.085       .  S
C518        C557   1.445       .  S
C518        C519   1.399       .  A
C519        C520   1.417       .  A
C519        H523   1.077       .  S
C520        C521   1.419       .  A
C520        C527   1.515       .  S
C521        H524   1.078       .  S
C525        C553   1.436       .  S
C525        C526   1.401       .  A
C525        C530   1.387       .  A
C526        C527   1.421       .  A
C526        H531   1.078       .  S
C527        C528   1.420       .  A
C528        C529   1.400       .  A
C528        H532   1.078       .  S
C529        C555   1.433       .  S
C529        C530   1.389       .  A
C530        H533   1.086       .  S
C534        C566   1.433       .  S
C534        C535   1.389       .  A
C534        C539   1.400       .  A
C535        C536   1.387       .  A
C535        H540   1.086       .  S
C536        C564   1.436       .  S
C536        C537   1.401       .  A
C537        C538   1.421       .  A
C537        H541   1.078       .  S
C538        C539   1.419       .  A
C538        C545   1.514       .  S
C539        H542   1.078       .  S
C543        C562   1.447       .  S
C543        C548   1.399       .  A
C544        C545   1.419       .  A
C544        H549   1.078       .  S
C545        C546   1.417       .  A
C546        H550   1.078       .  S
C547        C548   1.399   1_545  A
C548        H551   1.085       .  S
C552        C553   1.203       .  T
C554        C555   1.202       .  T
C556        C557   1.209       .  T
C558        C559   1.210       .  T
C560        C561   1.208       .  T
C562        C563   1.210       .  T
C564        C565   1.203       .  T
C566        C567   1.202       .  T
O568       Co588   1.977       .  S
O569        C577   1.256       .  A
O570       Co590   2.031       .  S
O571        C579   1.292   1_655  A
O572        C578   1.255   1_655  A
O573       Co588   1.888       .  S
O575       Co590   2.024       .  S
O575        C576   1.275       .  A
C576        C648   1.440       .  S
C577        C646   1.440       .  S
O580        C593   1.268       .  A
O581       Co589   1.978       .  S
O581        C594   1.256   1_655  A
O583       Co591   2.031   1_556  S
O584       Co589   1.950       .  S
O584        C596   1.255       .  A
O585        C595   1.263       .  A
O586       Co591   2.025   1_556  S
Co588       O592   2.003   1_565  S
C593        C635   1.440       .  S
C595        C644   1.424       .  S
C596        C641   1.432       .  S
C597        C639   1.430       .  S
C597        C598   1.388       .  A
C597        C602   1.396       .  A
C598        C599   1.389       .  A
C598        H603   1.086       .  S
C599        C638   1.439       .  S
C599        C600   1.405       .  A
C600        C601   1.423       .  A
C600        H604   1.078       .  S
C601        C602   1.417       .  A
C601        C608   1.515       .  S
C602        H605   1.077       .  S
C606        C634   1.446       .  S
C606        C607   1.402       .  A
C606        C611   1.399       .  A
C607        C608   1.416       .  A
C607        H612   1.078       .  S
C608        C609   1.419       .  A
C609        C610   1.400       .  A
C609        H613   1.078       .  S
C610        C636   1.447       .  S
C610        C611   1.399       .  A
C611        H614   1.085       .  S
C615        C647   1.447       .  S
C615        C616   1.399       .  A
C615        C620   1.400       .  A
C616        C617   1.400       .  A
C616        H621   1.085       .  S
C617        C645   1.446       .  S
C617        C618   1.402       .  A
C618        C619   1.416       .  A
C618        H622   1.079       .  S
C619        C620   1.419       .  A
C619        C626   1.514       .  S
C620        H623   1.078       .  S
C624        C643   1.430       .  S
C624        C629   1.388       .  A
C625        C626   1.417       .  A
C625        H630   1.078       .  S
C626        C627   1.423       .  A
C627        H631   1.079       .  S
C628        C629   1.389       .  A
C629        H632   1.086       .  S
C633        C634   1.209       .  T
C635        C636   1.210       .  T
C637        C638   1.205       .  T
C639        C640   1.199       .  T
C641        C642   1.205       .  T
C643        C644   1.199       .  T
C645        C646   1.209       .  T
C647        C648   1.210       .  T
