geometry optimzed in LAMMPS
_audit_creation_date              2020-12-01 
_audit_creation_method            'lammps2cif' 
_symmetry_space_group_name_H-M    'P1' 
_symmetry_Int_Tables_number       1 
_symmetry_cell_setting            triclinic 
loop_ 
_symmetry_equiv_pos_as_xyz 
  x,y,z 
_cell_length_a                    29.39864312 
_cell_length_b                    29.404798818205727 
_cell_length_c                    29.53581058387322 
_cell_angle_alpha                 90.07603515330496 
_cell_angle_beta                  89.93403886317708 
_cell_angle_gamma                 90.00829562052301 
loop_ 
_atom_site_label 
_atom_site_type_symbol 
_atom_site_fract_x 
_atom_site_fract_y 
_atom_site_fract_z 
_atom_site_charge 
N1          N  0.60529405  0.55970972  0.92522042    -0.05900
N2          N  0.63124713  0.56196409  0.88891320    -0.58000
N3          N  0.57440781  0.59401585  0.02873890    -0.05600
N4          N  0.57946251  0.62144096  0.06363729    -0.60100
N5          N  0.60525590  0.56161018  0.02953949    -0.05200
N6          N  0.63191985  0.56627797  0.06504675    -0.58000
N7          N  0.57394830  0.59166795  0.92427131    -0.04800
N8          N  0.57781801  0.61618091  0.88713498    -0.60500
C9          C  0.61381013  0.59737800  0.86555824     0.96300
C10         C  0.61546937  0.60377593  0.08593089     0.96100
N11         N  0.43614618  0.56488987  0.02994110    -0.06100
N12         N  0.40970448  0.57042198  0.06556149    -0.58600
N13         N  0.46824457  0.59398824  0.92507242    -0.04200
N14         N  0.46490951  0.61970796  0.88878606    -0.59800
N15         N  0.43600260  0.56295582  0.92538160    -0.06100
N16         N  0.41007208  0.56690885  0.88923330    -0.58800
N17         N  0.46852416  0.59584898  0.02957250    -0.03800
N18         N  0.46481087  0.62292598  0.06504023    -0.59900
Mn19       Mn  0.52130372  0.59572254  0.97690082     1.18400
C20         C  0.42786926  0.60674448  0.08713480     0.98400
C21         C  0.42844365  0.60253761  0.86682112     0.99000
N22         N  0.60345782  0.45526828  0.03104725    -0.06100
N23         N  0.63166291  0.44899930  0.06508726    -0.62400
N24         N  0.57121779  0.42313183  0.92729880    -0.04900
N25         N  0.57622356  0.39514222  0.89280083    -0.63100
N26         N  0.60336946  0.45426840  0.92699339    -0.05600
N27         N  0.63080040  0.44828225  0.89221680    -0.62700
N28         N  0.57106533  0.42430024  0.03154164    -0.04500
N29         N  0.57655972  0.39647573  0.06603931    -0.63400
Mn30       Mn  0.60605518  0.50775925  0.97833284     1.10700
C31         C  0.61448368  0.41227048  0.08669900     0.99600
C32         C  0.61344675  0.41132487  0.87123246     0.99700
N33         N  0.43335952  0.45678104  0.92682718    -0.05600
N34         N  0.40608136  0.45161811  0.89178804    -0.61000
N35         N  0.46453177  0.42616229  0.03103799    -0.04900
N36         N  0.45770612  0.39806224  0.06503160    -0.57700
N37         N  0.43344765  0.45837163  0.03086793    -0.06300
N38         N  0.40481727  0.45284120  0.06479047    -0.60600
N39         N  0.46483068  0.42489325  0.92696243    -0.05200
N40         N  0.45971889  0.39759919  0.89191753    -0.57700
Mn41       Mn  0.43296441  0.51091996  0.97831791     1.20200
Mn42       Mn  0.51789622  0.42298487  0.97926701     1.10100
Cl43       Cl  0.51952985  0.50931323  0.97828769    -0.85700
C44         C  0.42288088  0.41453910  0.87034351     0.96600
C45         C  0.42040430  0.41509276  0.08579060     0.96400
N46         N  0.46952051  0.95456625  0.39432470    -0.05900
N47         N  0.46468668  0.91868349  0.36782946    -0.58000
N48         N  0.43894564  0.05974046  0.42687237    -0.05600
N49         N  0.41087786  0.09420775  0.42058242    -0.60100
N50         N  0.47030626  0.05913554  0.39523488    -0.05200
N51         N  0.46447754  0.09310456  0.36673567    -0.58000
N52         N  0.43802822  0.95481512  0.42598521    -0.04800
N53         N  0.41142224  0.91887141  0.42219033    -0.60500
C54         C  0.42840514  0.89688893  0.38578190     0.96300
C55         C  0.42736798  0.11473009  0.38298622     0.96100
N56         N  0.47176893  0.05590429  0.56503421    -0.06100
N57         N  0.46881795  0.09105544  0.59260906    -0.58600
N58         N  0.43734262  0.95346207  0.53048877    -0.04200
N59         N  0.40980815  0.91822481  0.53356272    -0.59800
N60         N  0.46922872  0.95133874  0.56150698    -0.06100
N61         N  0.46416522  0.91455486  0.58647800    -0.58800
N62         N  0.44035816  0.05811258  0.53343628    -0.03800
N63         N  0.41530546  0.09490753  0.53886441    -0.59900
Mn64       Mn  0.43685751  0.00687126  0.47925756     1.18400
C65         C  0.43341718  0.11500231  0.57594215     0.98400
C66         C  0.42693196  0.89439658  0.56866205     0.99000
N67         N  0.57586417  0.05927098  0.39659969    -0.06100
N68         N  0.58046490  0.09473274  0.36984121    -0.62400
N69         N  0.60860386  0.95493666  0.42413162    -0.04900
N70         N  0.63715026  0.92108820  0.41709870    -0.63100
N71         N  0.57663779  0.95528397  0.39312048    -0.05600
N72         N  0.58269343  0.92169951  0.36413780    -0.62700
N73         N  0.60746804  0.05929324  0.42812495    -0.04500
N74         N  0.63431468  0.09502336  0.42345120    -0.63400
Mn75       Mn  0.52308409  0.00689766  0.39314513     1.10700
C76         C  0.61690622  0.11668298  0.38694585     0.99600
C77         C  0.62056280  0.90081175  0.37956235     0.99700
N78         N  0.57502949  0.94913123  0.56070627    -0.05600
N79         N  0.57759579  0.91197726  0.58538795    -0.61000
N80         N  0.60915089  0.05425667  0.53444576    -0.04900
N81         N  0.63774840  0.08800373  0.54201742    -0.57700
N82         N  0.57740532  0.05325067  0.56574082    -0.06300
N83         N  0.58343566  0.08633587  0.59526008    -0.60600
N84         N  0.60693841  0.94944835  0.52949860    -0.05200
N85         N  0.63191356  0.91215724  0.53217851    -0.57700
Mn86       Mn  0.52332930  0.00232067  0.56495667     1.20200
Mn87       Mn  0.60994988  0.00462376  0.47908403     1.10100
Cl88       Cl  0.52333229  0.00525145  0.47908379    -0.85700
C89         C  0.61320399  0.88933642  0.56737489     0.96600
C90         C  0.62116376  0.10758688  0.58002876     0.96400
N91         N  0.96836077  0.55669352  0.39610419    -0.05900
N92         N  0.93319275  0.56122593  0.36879036    -0.58000
N93         N  0.07259388  0.58920102  0.42704541    -0.05600
N94         N  0.10741344  0.61700800  0.42143308    -0.60100
N95         N  0.07292618  0.55733004  0.39584526    -0.05200
N96         N  0.10796711  0.56261163  0.36836746    -0.58000
N97         N  0.96784270  0.58824853  0.42753839    -0.04800
N98         N  0.93228758  0.61517790  0.42232467    -0.60500
C99         C  0.91108720  0.59785343  0.38551179     0.96300
C100        C  0.12916413  0.59997295  0.38472437     0.96100
N101        N  0.07266111  0.55661812  0.56436571    -0.06100
N102        N  0.10813654  0.56145226  0.59115616    -0.58600
N103        N  0.96806577  0.58726160  0.53345668    -0.04200
N104        N  0.93190172  0.61341400  0.53782038    -0.59800
N105        N  0.96815665  0.55533794  0.56457492    -0.06100
N106        N  0.93183971  0.55883039  0.59067679    -0.58800
N107        N  0.07221118  0.58855205  0.53331239    -0.03800
N108        N  0.10727237  0.61601054  0.53842999    -0.59900
Mn109      Mn  0.02018632  0.59018402  0.48041000     1.18400
C110        C  0.12931365  0.59867783  0.57465426     0.98400
C111        C  0.90981652  0.59530060  0.57361107     0.99000
N112        N  0.07296986  0.45077230  0.39621292    -0.06100
N113        N  0.10785295  0.44518214  0.36870703    -0.62400
N114        N  0.96839065  0.41933478  0.42756755    -0.04900
N115        N  0.93318782  0.39207106  0.42196920    -0.63100
N116        N  0.96846984  0.45134849  0.39655025    -0.05600
N117        N  0.93321070  0.44696001  0.36937820    -0.62700
N118        N  0.07291128  0.41923582  0.42770737    -0.04500
N119        N  0.10788007  0.39167136  0.42266988    -0.63400
Mn120      Mn  0.02082572  0.50398227  0.39448741     1.10700
C121        C  0.12923595  0.40834662  0.38582080     0.99600
C122        C  0.91164661  0.40997227  0.38571349     0.99700
N123        N  0.96945190  0.44936798  0.56516691    -0.05600
N124        N  0.93505254  0.44349754  0.59326407    -0.61000
N125        N  0.07387579  0.41861309  0.53261385    -0.04900
N126        N  0.10990296  0.39212021  0.53609215    -0.57700
N127        N  0.07467206  0.45052287  0.56381129    -0.06300
N128        N  0.11150028  0.44663448  0.58911549    -0.60600
N129        N  0.96909156  0.41807004  0.53345139    -0.05200
N130        N  0.93448429  0.39008139  0.53916844    -0.57700
Mn131      Mn  0.02128734  0.50296959  0.56632640     1.20200
Mn132      Mn  0.02091216  0.41705510  0.48032249     1.10100
Cl133      Cl  0.02086813  0.50361926  0.48041188    -0.85700
C134        C  0.91360510  0.40642427  0.57659739     0.96600
C135        C  0.13295708  0.40996567  0.57144400     0.96400
C136        C  0.75264481  0.33200095  0.30238326     0.80500
N137        N  0.73385833  0.29456397  0.32139003    -0.77800
C138        C  0.69594943  0.27571074  0.30330263     0.82900
N139        N  0.67711347  0.29427227  0.26570064    -0.77800
C140        C  0.69574723  0.33176942  0.24639425     0.83000
N141        N  0.73349881  0.35072276  0.26502494    -0.79500
C142        C  0.74680509  0.67406061  0.30847730     0.80500
N143        N  0.72990008  0.71306637  0.32638444    -0.77800
C144        C  0.69306300  0.73329508  0.30761900     0.82900
N145        N  0.67337689  0.71457442  0.27064810    -0.77800
C146        C  0.69008999  0.67585529  0.25224592     0.83000
N147        N  0.72681332  0.65560293  0.27132979    -0.79500
C148        C  0.69610020  0.32861965  0.71374370     0.80500
N149        N  0.67820905  0.28980618  0.69659894    -0.77800
C150        C  0.69775853  0.26906510  0.66056606     0.82900
N151        N  0.73537985  0.28743231  0.64135088    -0.77800
C152        C  0.75339765  0.32643574  0.65801284     0.83000
N153        N  0.73372680  0.34690755  0.69432025    -0.79500
C154        C  0.35592745  0.72900072  0.31502809     0.80500
N155        N  0.31860297  0.70975600  0.33400573    -0.77800
C156        C  0.29892233  0.67279199  0.31456785     0.82900
N157        N  0.31722835  0.65499911  0.27616257    -0.77800
C158        C  0.35477153  0.67399883  0.25709556     0.83000
N159        N  0.37360450  0.71137789  0.27642671    -0.79500
C160        C  0.35524610  0.72664689  0.64023917     0.80500
N161        N  0.31672906  0.70730161  0.62422698    -0.77800
C162        C  0.29974537  0.66910562  0.64351989     0.82900
N163        N  0.32124943  0.65089822  0.67980755    -0.77800
C164        C  0.35951542  0.67037298  0.69654397     0.83000
N165        N  0.37653027  0.70808191  0.67638811    -0.79500
C166        C  0.35541185  0.34150509  0.70099764     0.80500
N167        N  0.31836616  0.35883763  0.67974694    -0.77800
C168        C  0.30188550  0.33861530  0.64182437     0.82900
N169        N  0.32243888  0.30072911  0.62534289    -0.77800
C170        C  0.35969739  0.28334456  0.64620855     0.83000
N171        N  0.37597418  0.30385718  0.68403321    -0.79500
C172        C  0.67944957  0.65981988  0.69190616     0.80500
N173        N  0.65913772  0.69653380  0.67295061    -0.77800
C174        C  0.67700364  0.71621362  0.63539328     0.82900
N175        N  0.71563722  0.69897601  0.61689632    -0.77800
C176        C  0.73588194  0.66196691  0.63546937     0.83000
N177        N  0.71780394  0.64269655  0.67301488    -0.79500
C178        C  0.34656436  0.27488971  0.30176336     0.80500
N179        N  0.36332328  0.29431185  0.26354424    -0.77800
C180        C  0.34356308  0.33215023  0.24606195     0.82900
N181        N  0.30652074  0.35014333  0.26670705    -0.77800
C182        C  0.28974008  0.33104787  0.30491762     0.83000
N183        N  0.30989765  0.29365944  0.32246767    -0.79500
C184        C  0.17668001  0.39162320  0.58820317    -0.05100
C185        C  0.17991851  0.34533142  0.60039598    -0.02200
C186        C  0.22144857  0.32750168  0.61615238     0.02800
C187        C  0.25979504  0.35610484  0.62061532    -0.05100
C188        C  0.25702079  0.40201782  0.60692430    -0.02200
C189        C  0.21550243  0.41981540  0.59089228     0.02800
C190        C  0.13990307  0.31646246  0.59884176     0.37400
C191        C  0.29742633  0.43037448  0.60753086     0.37400
C192        C  0.21323658  0.46666190  0.57562172     0.35800
C193        C  0.22424550  0.27992365  0.62890347     0.35800
N194        N  0.21160270  0.50394595  0.56321616    -0.39000
N195        N  0.22658955  0.24191922  0.63876861    -0.39000
N196        N  0.32981017  0.45276663  0.60767177    -0.38400
N197        N  0.10791218  0.29353985  0.59788613    -0.38400
C198        C  0.17293979  0.61635593  0.59236292    -0.05100
C199        C  0.18164542  0.61598879  0.63940715    -0.02200
C200        C  0.22374980  0.63138423  0.65614046     0.02800
C201        C  0.25695692  0.64890243  0.62602176    -0.05100
C202        C  0.24826996  0.64876891  0.57888285    -0.02200
C203        C  0.20662906  0.63237376  0.56219450     0.02800
C204        C  0.14660734  0.60173843  0.67108645     0.37400
C205        C  0.28263757  0.66406708  0.54691681     0.37400
C206        C  0.19960042  0.63068126  0.51359600     0.35800
C207        C  0.23199007  0.62989263  0.70460259     0.35800
N208        N  0.19477638  0.62957657  0.47475864    -0.39000
N209        N  0.23856419  0.62810805  0.74319058    -0.39000
N210        N  0.30974377  0.67639700  0.52125602    -0.38400
N211        N  0.11872732  0.59063872  0.69648289    -0.38400
C212        C  0.17238151  0.61855851  0.36622326    -0.05100
C213        C  0.20845501  0.58897339  0.35441134    -0.02200
C214        C  0.24995253  0.60668810  0.33813525     0.02800
C215        C  0.25571434  0.65413335  0.33308747    -0.05100
C216        C  0.21948052  0.68370785  0.34460957    -0.02200
C217        C  0.17811158  0.66600022  0.36120685     0.02800
C218        C  0.20380919  0.54022311  0.36050052     0.37400
C219        C  0.22389942  0.73242383  0.33785791     0.37400
C220        C  0.14084821  0.69675221  0.37142177     0.35800
C221        C  0.28730051  0.57594144  0.32823019     0.35800
N222        N  0.11119929  0.72138870  0.37943556    -0.39000
N223        N  0.31703204  0.55133406  0.32045807    -0.39000
N224        N  0.22747036  0.77125143  0.33252292    -0.38400
N225        N  0.20043870  0.50130997  0.36522677    -0.38400
C226        C  0.17010607  0.38777617  0.36567837    -0.05100
C227        C  0.16979169  0.37502001  0.31965986    -0.02200
C228        C  0.20874040  0.35548896  0.30010399     0.02800
C229        C  0.24852533  0.34984107  0.32620407    -0.05100
C230        C  0.24863084  0.36190490  0.37248557    -0.02200
C231        C  0.20922395  0.38039412  0.39234690     0.02800
C232        C  0.12873424  0.38017632  0.29288628     0.37400
C233        C  0.28957557  0.35650948  0.39939172     0.37400
C234        C  0.20943157  0.39286649  0.43989955     0.35800
C235        C  0.20709079  0.33912680  0.25373556     0.35800
N236        N  0.20976339  0.40259637  0.47786447    -0.39000
N237        N  0.20569323  0.32570456  0.21691218    -0.39000
N238        N  0.32220620  0.35223328  0.42086188    -0.38400
N239        N  0.09591530  0.38422614  0.27166816    -0.38400
C240        C  0.86550429  0.61204958  0.59014874    -0.05100
C241        C  0.82833945  0.58194259  0.59438444    -0.02200
C242        C  0.78569224  0.59843348  0.60859824     0.02800
C243        C  0.77988139  0.64519623  0.61796642    -0.05100
C244        C  0.81707798  0.67531954  0.61348784    -0.02200
C245        C  0.85987185  0.65867637  0.59996195     0.02800
C246        C  0.83332360  0.53430353  0.58241270     0.37400
C247        C  0.81200119  0.72317555  0.62456999     0.37400
C248        C  0.89863512  0.68921353  0.59812606     0.35800
C249        C  0.74751023  0.56737976  0.61255909     0.35800
N250        N  0.92967028  0.71342057  0.59695400    -0.39000
N251        N  0.71706297  0.54262826  0.61584057    -0.39000
N252        N  0.80800953  0.76134040  0.63331910    -0.38400
N253        N  0.83700424  0.49634817  0.57269492    -0.38400
C254        C  0.87258721  0.38583615  0.59725051    -0.05100
C255        C  0.83577381  0.37202423  0.56972322    -0.02200
C256        C  0.79683721  0.35236860  0.58951324     0.02800
C257        C  0.79451705  0.34634183  0.63695638    -0.05100
C258        C  0.83162830  0.35946912  0.66433107    -0.02200
C259        C  0.87028193  0.37963779  0.64464090     0.02800
C260        C  0.83690496  0.37972309  0.52116922     0.37400
C261        C  0.83111006  0.35020264  0.71261634     0.37400
C262        C  0.90824599  0.39259799  0.67326873     0.35800
C263        C  0.75874287  0.33949169  0.56097713     0.35800
N264        N  0.93841200  0.40302487  0.69619797    -0.39000
N265        N  0.72847615  0.32908460  0.53816090    -0.39000
N266        N  0.83076398  0.34253970  0.75103633    -0.38400
N267        N  0.83752384  0.38586924  0.48247649    -0.38400
C268        C  0.79354929  0.35241665  0.32284608    -0.05100
C269        C  0.79237222  0.39763814  0.33889811    -0.02200
C270        C  0.83105662  0.41656774  0.35974225     0.02800
C271        C  0.87081967  0.39016038  0.36472514    -0.05100
C272        C  0.87212319  0.34512450  0.34837288    -0.02200
C273        C  0.83350644  0.32621581  0.32752505     0.02800
C274        C  0.75088023  0.42414117  0.33538325     0.37400
C275        C  0.91389592  0.31894976  0.35117528     0.37400
C276        C  0.83542920  0.28026980  0.30962524     0.35800
C277        C  0.82949458  0.46274067  0.37716387     0.36900
N278        N  0.83710297  0.24364622  0.29531193    -0.39000
N279        N  0.82814844  0.49954093  0.39107413    -0.39000
N280        N  0.94739155  0.29838606  0.35326501    -0.38400
N281        N  0.71770145  0.44512756  0.33259295    -0.38400
C282        C  0.78815501  0.65312647  0.32814860    -0.05100
C283        C  0.79246727  0.64850945  0.37559274    -0.02200
C284        C  0.83265306  0.63056819  0.39436699     0.02800
C285        C  0.86864667  0.61651764  0.36583719    -0.05100
C286        C  0.86395409  0.62023810  0.31834745    -0.02200
C287        C  0.82409914  0.63889501  0.29960881     0.02800
C288        C  0.75509120  0.66098819  0.40530105     0.37400
C289        C  0.90075100  0.60655278  0.28846277     0.37400
C290        C  0.82123006  0.64536261  0.25095077     0.35800
C291        C  0.83600501  0.62522265  0.44308334     0.35800
N292        N  0.81893792  0.65060747  0.21218432    -0.39000
N293        N  0.83827285  0.62111302  0.48197041    -0.39000
N294        N  0.92991656  0.59559300  0.26446006    -0.38400
N295        N  0.72536484  0.67093156  0.42904826    -0.38400
C296        C  0.64072487  0.14844208  0.60148425    -0.05100
C297        C  0.61240359  0.18584402  0.61175801    -0.02200
C298        C  0.63092477  0.22514409  0.63165949     0.02800
C299        C  0.67781394  0.22700778  0.64187762    -0.05100
C300        C  0.70578593  0.18891841  0.63322505    -0.02200
C301        C  0.68748685  0.15008037  0.61213296     0.02800
C302        C  0.56453285  0.18497789  0.59985430     0.37400
C303        C  0.75284558  0.18877701  0.64809538     0.37400
C304        C  0.71669330  0.11150145  0.60233965     0.35800
C305        C  0.60178151  0.26410766  0.64025259     0.35800
N306        N  0.74015031  0.08090929  0.59436747    -0.39000
N307        N  0.57847190  0.29506120  0.64720244    -0.39000
N308        N  0.79019580  0.18857569  0.66044914    -0.38400
N309        N  0.52638191  0.18467325  0.59030791    -0.38400
C310        C  0.41777965  0.15906394  0.59451640    -0.05100
C311        C  0.41160502  0.16475472  0.64161537    -0.02200
C312        C  0.39285249  0.20544414  0.65863269     0.02800
C313        C  0.38135003  0.24123642  0.62871659    -0.05100
C314        C  0.39024261  0.23641638  0.58188995    -0.02200
C315        C  0.40866306  0.19560889  0.56493560     0.02800
C316        C  0.42368416  0.12851766  0.67271840     0.37400
C317        C  0.38156975  0.27380544  0.55103872     0.37400
C318        C  0.42072648  0.19224528  0.51734148     0.35800
C319        C  0.38346001  0.20932732  0.70676032     0.35800
N320        N  0.43087636  0.18970925  0.47954698    -0.39000
N321        N  0.37595352  0.21228761  0.74513262    -0.39000
N322        N  0.37462664  0.30348317  0.52629901    -0.38400
N323        N  0.43369904  0.09990055  0.69766095    -0.38400
C324        C  0.36749115  0.23313220  0.32074686    -0.05100
C325        C  0.33951918  0.19744093  0.33683659    -0.02200
C326        C  0.35905358  0.15892740  0.35736883     0.02800
C327        C  0.40681072  0.15534447  0.36140604    -0.05100
C328        C  0.43486788  0.19030207  0.34399194    -0.02200
C329        C  0.41532139  0.22907632  0.32387484     0.02800
C330        C  0.29049814  0.19927134  0.33078250     0.37400
C331        C  0.48401682  0.18748953  0.34802763     0.37400
C332        C  0.44468971  0.26534806  0.30781076     0.35800
C333        C  0.32978689  0.12226007  0.37268495     0.35800
N334        N  0.46819172  0.29415224  0.29486966    -0.39000
N335        N  0.30629695  0.09309615  0.38481517    -0.39000
N336        N  0.52320994  0.18562613  0.35095832    -0.38400
N337        N  0.25147585  0.20070371  0.32592915    -0.38400
C338        C  0.63692919  0.15759056  0.36589678    -0.05100
C339        C  0.64626093  0.15771560  0.31895983    -0.02200
C340        C  0.66532778  0.19643101  0.29845018     0.02800
C341        C  0.67520374  0.23531316  0.32475289    -0.05100
C342        C  0.66539802  0.23538749  0.37166414    -0.02200
C343        C  0.64599557  0.19668839  0.39212853     0.02800
C344        C  0.63747500  0.11746823  0.29179401     0.37400
C345        C  0.67391977  0.27578773  0.39868967     0.37400
C346        C  0.63324834  0.19799368  0.43962347     0.35800
C347        C  0.67629141  0.19548199  0.25051491     0.35800
N348        N  0.62276120  0.19931822  0.47739246    -0.39000
N349        N  0.68499307  0.19462719  0.21229621    -0.39000
N350        N  0.68085732  0.30801740  0.42013108    -0.38400
N351        N  0.63036948  0.08537426  0.27021084    -0.38400
C352        C  0.37301299  0.76880147  0.61970345    -0.05100
C353        C  0.41976846  0.77249070  0.60938865    -0.02200
C354        C  0.43728160  0.81345711  0.59219566     0.02800
C355        C  0.40809325  0.85081784  0.58475131    -0.05100
C356        C  0.36101119  0.84655038  0.59318497    -0.02200
C357        C  0.34356805  0.80585788  0.61123789     0.02800
C358        C  0.44983038  0.73374732  0.61528467     0.37400
C359        C  0.33056424  0.88448668  0.58478199     0.37400
C360        C  0.29570622  0.80315665  0.62315848     0.35800
C361        C  0.48507068  0.81626904  0.58028769     0.35800
N362        N  0.25757833  0.80111099  0.63277540    -0.39000
N363        N  0.52312744  0.81797027  0.57047079    -0.39000
N364        N  0.30618737  0.91458989  0.57790424    -0.38400
N365        N  0.47378782  0.70289102  0.61996958    -0.38400
C366        C  0.65786243  0.75942277  0.61793959    -0.05100
C367        C  0.65148299  0.76576073  0.57094193    -0.02200
C368        C  0.63719405  0.80832260  0.55417720     0.02800
C369        C  0.62897752  0.84470607  0.58439242    -0.05100
C370        C  0.63352033  0.83778994  0.63148598    -0.02200
C371        C  0.64793019  0.79541916  0.64821918     0.02800
C372        C  0.65753424  0.72787704  0.53996152     0.37400
C373        C  0.62455361  0.87467101  0.66302928     0.37400
C374        C  0.65370463  0.78965227  0.69670023     0.35800
C375        C  0.62851331  0.81377334  0.50613567     0.35800
N376        N  0.65798728  0.78504664  0.73538328    -0.39000
N377        N  0.62125044  0.81784718  0.46784798    -0.39000
N378        N  0.61725211  0.90395111  0.68822580    -0.38400
N379        N  0.66200926  0.69756329  0.51533833    -0.38400
C380        C  0.67486740  0.77613667  0.32642607    -0.05100
C381        C  0.62757771  0.78081161  0.33360602    -0.02200
C382        C  0.60989269  0.82180394  0.35055496     0.02800
C383        C  0.63926661  0.85849282  0.36024726    -0.05100
C384        C  0.68651416  0.85405379  0.35283500    -0.02200
C385        C  0.70431425  0.81293469  0.33595552     0.02800
C386        C  0.59696985  0.74303771  0.32486569     0.37400
C387        C  0.71670255  0.89228595  0.36091337     0.37400
C388        C  0.75271136  0.80928718  0.32674293     0.35800
C389        C  0.56154830  0.82526039  0.35987224     0.35800
N390        N  0.79127753  0.80636500  0.31938349    -0.39000
N391        N  0.52300278  0.82773239  0.36731670    -0.39000
N392        N  0.74086670  0.92273435  0.36716510    -0.38400
N393        N  0.57244171  0.71307772  0.31777596    -0.38400
C394        C  0.40975436  0.85385158  0.36806622    -0.05100
C395        C  0.41313024  0.81350414  0.39373157    -0.02200
C396        C  0.39569430  0.77237213  0.37634156     0.02800
C397        C  0.37443663  0.77173716  0.33356586    -0.05100
C398        C  0.37042189  0.81225992  0.30831406    -0.02200
C399        C  0.38817076  0.85322921  0.32551128     0.02800
C400        C  0.43562766  0.81408188  0.43742049     0.37400
C401        C  0.34673025  0.81204207  0.26523206     0.37400
C402        C  0.38273096  0.89513584  0.30021081     0.35800
C403        C  0.40071566  0.73050779  0.40179828     0.35800
N404        N  0.37820420  0.92867074  0.28025670    -0.39000
N405        N  0.40483908  0.69704568  0.42196913    -0.39000
N406        N  0.32767768  0.81174818  0.23096615    -0.38400
N407        N  0.45375431  0.81449361  0.47217412    -0.38400
C408        C  0.63513262  0.39144924  0.12743379    -0.05100
C409        C  0.68248379  0.38316420  0.12892622    -0.02200
C410        C  0.70222804  0.36344673  0.16767085     0.02800
C411        C  0.67488073  0.35206080  0.20538827    -0.05100
C412        C  0.62743720  0.36004867  0.20373895    -0.02200
C413        C  0.60769085  0.37964886  0.16491984     0.02800
C414        C  0.71074889  0.39311765  0.08985737     0.37400
C415        C  0.59896640  0.34939795  0.24247100     0.37400
C416        C  0.55919173  0.38916018  0.16438816     0.35800
C417        C  0.75055982  0.35311042  0.16776969     0.35800
N418        N  0.52058440  0.39671631  0.16413730    -0.39000
N419        N  0.78900975  0.34480037  0.16775801    -0.39000
N420        N  0.57626380  0.34075429  0.27335655    -0.38400
N421        N  0.73332030  0.40093417  0.05866485    -0.38400
C422        C  0.63355277  0.62225943  0.12879540    -0.05100
C423        C  0.64303501  0.59282212  0.16536416    -0.02200
C424        C  0.66121237  0.61030803  0.20588813     0.02800
C425        C  0.66983670  0.65740497  0.21017699    -0.05100
C426        C  0.65908565  0.68699746  0.17393741    -0.02200
C427        C  0.64083978  0.66947384  0.13352173     0.02800
C428        C  0.63183720  0.54481536  0.16231330     0.37400
C429        C  0.66809301  0.73546578  0.17735401     0.37400
C430        C  0.63076130  0.70016069  0.09636612     0.35800
C431        C  0.66933926  0.57988637  0.24371441     0.35800
N432        N  0.62264515  0.72478835  0.06693301    -0.39000
N433        N  0.67573813  0.55554450  0.27379946    -0.39000
N434        N  0.67506975  0.77411164  0.18012137    -0.38400
N435        N  0.62262631  0.50661010  0.16016477    -0.38400
C436        C  0.37356156  0.65609323  0.21385818    -0.05100
C437        C  0.42108681  0.65059537  0.20840673    -0.02200
C438        C  0.43907997  0.63542686  0.16674021     0.02800
C439        C  0.40972799  0.62550148  0.13015909    -0.05100
C440        C  0.36240912  0.63201129  0.13526964    -0.02200
C441        C  0.34431365  0.64654435  0.17704354     0.02800
C442        C  0.45158973  0.65901178  0.24615512     0.37400
C443        C  0.33242601  0.62634122  0.09664141     0.37400
C444        C  0.29555543  0.65301655  0.18138954     0.35800
C445        C  0.48780205  0.62905011  0.16219076     0.35800
N446        N  0.25664306  0.65789558  0.18483503    -0.39000
N447        N  0.52673488  0.62425757  0.15908938    -0.39000
N448        N  0.30867913  0.62233192  0.06567249    -0.38400
N449        N  0.47591809  0.66573602  0.27620925    -0.38400
C450        C  0.39903230  0.39430854  0.12609012    -0.05100
C451        C  0.39219939  0.34676407  0.12775911    -0.02200
C452        C  0.37324692  0.32658055  0.16661907     0.02800
C453        C  0.36204461  0.35362811  0.20460095    -0.05100
C454        C  0.36834029  0.40131367  0.20269403    -0.02200
C455        C  0.38615509  0.42163965  0.16332620     0.02800
C456        C  0.40316412  0.31855795  0.08885286     0.37400
C457        C  0.35826073  0.42952542  0.24184081     0.37400
C458        C  0.39262093  0.47059168  0.16195115     0.35800
C459        C  0.36363080  0.27814170  0.16667420     0.35800
N460        N  0.39750603  0.50963902  0.16101437    -0.39000
N461        N  0.35579213  0.23956657  0.16663992    -0.39000
N462        N  0.35030522  0.45204348  0.27302025    -0.38400
N463        N  0.41190557  0.29602357  0.05789357    -0.38400
C464        C  0.63069872  0.61219002  0.82083809    -0.05100
C465        C  0.67738911  0.62132311  0.81459849    -0.02200
C466        C  0.69345636  0.63619841  0.77222897     0.02800
C467        C  0.66284476  0.64192129  0.73570516    -0.05100
C468        C  0.61624501  0.63196876  0.74177911    -0.02200
C469        C  0.60032168  0.61671850  0.78410390     0.02800
C470        C  0.70881112  0.61691750  0.85222995     0.37400
C471        C  0.58476876  0.63628305  0.70418361     0.37400
C472        C  0.55313533  0.60318519  0.78903263     0.35800
C473        C  0.74127609  0.64750783  0.76703507     0.35800
N474        N  0.51563888  0.59181686  0.79255567    -0.39000
N475        N  0.77938777  0.65646812  0.76287462    -0.39000
N476        N  0.55963701  0.63981448  0.67426441    -0.38400
N477        N  0.73391264  0.61343482  0.88217651    -0.38400
C478        C  0.67503182  0.35009942  0.75399186    -0.05100
C479        C  0.66246953  0.32297278  0.79153633    -0.02200
C480        C  0.64213395  0.34306078  0.82974596     0.02800
C481        C  0.63375356  0.39027840  0.83060570    -0.05100
C482        C  0.64563706  0.41736870  0.79296305    -0.02200
C483        C  0.66665945  0.39745502  0.75492863     0.02800
C484        C  0.67175310  0.27446374  0.79174789     0.37400
C485        C  0.63427225  0.46539621  0.79236554     0.37400
C486        C  0.67827011  0.42567748  0.71629130     0.35800
C487        C  0.63148382  0.31521439  0.86892800     0.35800
N488        N  0.68763782  0.44832092  0.68564273    -0.39000
N489        N  0.62310738  0.29302519  0.90017509    -0.39000
N490        N  0.62489977  0.50359597  0.79150867    -0.38400
N491        N  0.67893613  0.23576438  0.79188345    -0.38400
C492        C  0.37217612  0.36200577  0.74371663    -0.05100
C493        C  0.34198009  0.36976713  0.78023295    -0.02200
C494        C  0.35843497  0.38741561  0.82151302     0.02800
C495        C  0.40527195  0.39670423  0.82682860    -0.05100
C496        C  0.43532336  0.38950425  0.79011962    -0.02200
C497        C  0.41881281  0.37239980  0.74870421     0.02800
C498        C  0.29425183  0.35776949  0.77610907     0.37400
C499        C  0.48300042  0.40170449  0.79413096     0.37400
C500        C  0.44969370  0.36693369  0.71068540     0.35800
C501        C  0.32729022  0.39451922  0.85902061     0.35800
N502        N  0.47426934  0.36268194  0.68033716    -0.39000
N503        N  0.30234780  0.40017302  0.88884201    -0.39000
N504        N  0.52096569  0.41163994  0.79706578    -0.38400
N505        N  0.25623890  0.34809913  0.77276736    -0.38400
C506        C  0.37995944  0.65297552  0.73893319    -0.05100
C507        C  0.39300881  0.68364119  0.77359997    -0.02200
C508        C  0.40838909  0.66702406  0.81549444     0.02800
C509        C  0.41190049  0.61973915  0.82282938    -0.05100
C510        C  0.40049936  0.58913442  0.78770962    -0.02200
C511        C  0.38424240  0.60563176  0.74605101     0.02800
C512        C  0.38913900  0.73246680  0.76720558     0.37400
C513        C  0.40734269  0.54064487  0.79344845     0.37400
C514        C  0.37310301  0.57367210  0.71017737     0.35800
C515        C  0.41849008  0.69882889  0.85178432     0.35800
N516        N  0.36412739  0.54807002  0.68175395    -0.39000
N517        N  0.42629368  0.72428921  0.88066290    -0.39000
N518        N  0.41299943  0.50194246  0.79740744    -0.38400
N519        N  0.38640980  0.77138455  0.76205336    -0.38400
loop_ 
_geom_bond_atom_site_label_1 
_geom_bond_atom_site_label_2 
_geom_bond_distance 
_geom_bond_site_symmetry_2 
_ccdc_geom_bond_type 
N1            N2   1.317       .  A
N1            N7   1.317       .  A
N1          Mn30   2.191       .  S
N2            C9   1.351       .  A
N3            N5   1.316       .  A
N3            N4   1.316       .  A
N3          Mn19   2.189   1_554  S
N4           C10   1.352       .  A
N5            N6   1.317       .  A
N5          Mn30   2.188   1_554  S
N6           C10   1.352       .  A
N7            N8   1.318       .  A
N7          Mn19   2.195       .  S
N8            C9   1.352       .  A
C9          C464   1.477       .  S
C10         C422   1.477       .  S
N11          N17   1.317       .  A
N11          N12   1.317       .  A
N11         Mn41   2.201   1_554  S
N12          C20   1.353       .  A
N13          N14   1.316       .  A
N13          N15   1.316       .  A
N13         Mn19   2.187       .  S
N14          C21   1.351       .  A
N15          N16   1.318       .  A
N15         Mn41   2.191       .  S
N16          C21   1.352       .  A
N17          N18   1.319       .  A
N17         Mn19   2.196   1_554  S
N18          C20   1.353       .  A
Mn19        Cl43   2.542       .  S
C20         C439   1.483       .  S
C21         C509   1.478       .  S
N22          N23   1.317       .  A
N22          N28   1.318       .  A
N22         Mn30   2.195   1_554  S
N23          C31   1.353       .  A
N24          N26   1.316       .  A
N24          N25   1.317       .  A
N24         Mn42   2.193       .  S
N25          C32   1.352       .  A
N26          N27   1.317       .  A
N26         Mn30   2.185       .  S
N27          C32   1.351       .  A
N28          N29   1.318       .  A
N28         Mn42   2.199   1_554  S
N29          C31   1.353       .  A
Mn30        Cl43   2.544       .  S
C31         C408   1.481       .  S
C32         C481   1.475       .  S
N33          N34   1.319       .  A
N33          N39   1.317       .  A
N33         Mn41   2.200       .  S
N34          C44   1.353       .  A
N35          N36   1.316       .  A
N35          N37   1.316       .  A
N35         Mn42   2.191   1_554  S
N36          C45   1.352       .  A
N37          N38   1.318       .  A
N37         Mn41   2.192   1_554  S
N38          C45   1.353       .  A
N39          N40   1.318       .  A
N39         Mn42   2.198       .  S
N40          C44   1.353       .  A
Mn41        Cl43   2.545       .  S
Mn42        Cl43   2.539       .  S
C44         C495   1.481       .  S
C45         C450   1.478       .  S
N46          N47   1.321       .  A
N46          N52   1.315       .  A
N46         Mn75   2.202   1_565  S
N47          C54   1.352       .  A
N48          N50   1.312       .  A
N48          N49   1.320       .  A
N48         Mn64   2.196       .  S
N49          C55   1.354       .  A
N50          N51   1.318       .  A
N50         Mn75   2.184       .  S
N51          C55   1.350       .  A
N52          N53   1.320       .  A
N52         Mn64   2.194   1_565  S
N53          C54   1.349       .  A
C54         C394   1.475       .  S
C55         C327   1.484       .  S
N56          N62   1.315       .  A
N56          N57   1.318       .  A
N56         Mn86   2.187       .  S
N57          C65   1.350       .  A
N58          N59   1.318       .  A
N58          N60   1.313       .  A
N58         Mn64   2.182   1_565  S
N59          C66   1.350       .  A
N60          N61   1.318       .  A
N60         Mn86   2.188   1_565  S
N61          C66   1.352       .  A
N62          N63   1.318       .  A
N62         Mn64   2.199       .  S
N63          C65   1.353       .  A
Mn64        Cl88   2.543       .  S
C65         C310   1.479       .  S
C66         C355   1.475       .  S
N67          N68   1.316       .  A
N67          N73   1.316       .  A
N67         Mn75   2.188       .  S
N68          C76   1.349       .  A
N69          N71   1.313       .  A
N69          N70   1.318       .  A
N69         Mn87   2.183   1_565  S
N70          C77   1.350       .  A
N71          N72   1.318       .  A
N71         Mn75   2.187   1_565  S
N72          C77   1.351       .  A
N73          N74   1.321       .  A
N73         Mn87   2.205       .  S
N74          C76   1.354       .  A
Mn75        Cl88   2.539       .  S
C76         C338   1.477       .  S
C77         C383   1.474       .  S
N78          N79   1.316       .  A
N78          N84   1.314       .  A
N78         Mn86   2.184   1_565  S
N79          C89   1.349       .  A
N80          N81   1.320       .  A
N80          N82   1.313       .  A
N80         Mn87   2.190       .  S
N81          C90   1.352       .  A
N82          N83   1.318       .  A
N82         Mn86   2.184       .  S
N83          C90   1.350       .  A
N84          N85   1.322       .  A
N84         Mn87   2.205   1_565  S
N85          C89   1.354       .  A
Mn86        Cl88   2.538       .  S
Mn87        Cl88   2.547       .  S
C89         C369   1.481       .  S
C90         C296   1.474       .  S
N91          N92   1.319       .  A
N91          N97   1.312       .  A
N91        Mn120   2.187   1_655  S
N92          C99   1.351       .  A
N93          N95   1.313       .  A
N93          N94   1.320       .  A
N93        Mn109   2.203       .  S
N94         C100   1.354       .  A
N95          N96   1.320       .  A
N95        Mn120   2.193       .  S
N96         C100   1.352       .  A
N97          N98   1.321       .  A
N97        Mn109   2.194   1_655  S
N98          C99   1.353       .  A
C99         C285   1.483       .  S
C100        C212   1.487       .  S
N101        N107   1.314       .  A
N101        N102   1.317       .  A
N101       Mn131   2.185       .  S
N102        C110   1.351       .  A
N103        N104   1.318       .  A
N103        N105   1.315       .  A
N103       Mn109   2.192   1_655  S
N104        C111   1.350       .  A
N105        N106   1.320       .  A
N105       Mn131   2.194   1_655  S
N106        C111   1.351       .  A
N107        N108   1.318       .  A
N107       Mn109   2.188       .  S
N108        C110   1.352       .  A
Mn109      Cl133   2.546       .  S
C110        C198   1.480       .  S
C111        C240   1.475       .  S
N112        N113   1.318       .  A
N112        N118   1.314       .  A
N112       Mn120   2.191       .  S
N113        C121   1.351       .  A
N114        N116   1.314       .  A
N114        N115   1.319       .  A
N114       Mn132   2.196   1_655  S
N115        C122   1.352       .  A
N116        N117   1.318       .  A
N116       Mn120   2.183   1_655  S
N117        C122   1.348       .  A
N118        N119   1.317       .  A
N118       Mn132   2.180       .  S
N119        C121   1.349       .  A
Mn120      Cl133   2.538       .  S
C121        C226   1.470       .  S
C122        C271   1.471       .  S
N123        N124   1.319       .  A
N123        N129   1.312       .  A
N123       Mn131   2.192   1_655  S
N124        C134   1.352       .  A
N125        N126   1.319       .  A
N125        N127   1.314       .  A
N125       Mn132   2.195       .  S
N126        C135   1.351       .  A
N127        N128   1.321       .  A
N127       Mn131   2.202       .  S
N128        C135   1.353       .  A
N129        N130   1.319       .  A
N129       Mn132   2.186   1_655  S
N130        C134   1.352       .  A
Mn131      Cl133   2.538       .  S
Mn132      Cl133   2.545       .  S
C134        C254   1.480       .  S
C135        C184   1.480       .  S
C136        N137   1.354       .  A
C136        N141   1.357       .  A
C136        C268   1.474       .  S
N137        C138   1.355       .  A
C138        N139   1.357       .  A
C138        C341   1.478       .  S
N139        C140   1.357       .  A
C140        N141   1.359       .  A
C140        C411   1.484       .  S
C142        N143   1.357       .  A
C142        N147   1.358       .  A
C142        C282   1.482       .  S
N143        C144   1.355       .  A
C144        N145   1.353       .  A
C144        C380   1.476       .  S
N145        C146   1.353       .  A
C146        N147   1.357       .  A
C146        C425   1.481       .  S
C148        N149   1.354       .  A
C148        N153   1.357       .  A
C148        C478   1.481       .  S
N149        C150   1.353       .  A
C150        N151   1.355       .  A
C150        C299   1.475       .  S
N151        C152   1.355       .  A
C152        N153   1.358       .  A
C152        C257   1.480       .  S
C154        N155   1.356       .  A
C154        N159   1.355       .  A
C154        C397   1.474       .  S
N155        C156   1.358       .  A
C156        N157   1.359       .  A
C156        C215   1.488       .  S
N157        C158   1.359       .  A
C158        N159   1.356       .  A
C158        C436   1.487       .  S
C160        N161   1.353       .  A
C160        N165   1.354       .  A
C160        C352   1.476       .  S
N161        C162   1.355       .  A
C162        N163   1.356       .  A
C162        C201   1.484       .  S
N163        C164   1.356       .  A
C164        N165   1.355       .  A
C164        C506   1.481       .  S
C166        N167   1.357       .  A
C166        N171   1.356       .  A
C166        C492   1.482       .  S
N167        C168   1.357       .  A
C168        N169   1.357       .  A
C168        C187   1.480       .  S
N169        C170   1.358       .  A
C170        N171   1.357       .  A
C170        C313   1.484       .  S
C172        N173   1.356       .  A
C172        N177   1.354       .  A
C172        C467   1.480       .  S
N173        C174   1.357       .  A
C174        N175   1.358       .  A
C174        C366   1.483       .  S
N175        C176   1.357       .  A
C176        N177   1.354       .  A
C176        C243   1.477       .  S
C178        N179   1.358       .  A
C178        N183   1.356       .  A
C178        C324   1.484       .  S
N179        C180   1.358       .  A
C180        N181   1.355       .  A
C180        C453   1.481       .  S
N181        C182   1.354       .  A
C182        N183   1.353       .  A
C182        C229   1.472       .  S
C184        C185   1.412       .  A
C184        C189   1.413       .  A
C185        C186   1.409       .  A
C185        C190   1.451       .  S
C186        C187   1.413       .  A
C186        C193   1.452       .  S
C187        C188   1.412       .  A
C188        C189   1.411       .  A
C188        C191   1.451       .  S
C189        C192   1.452       .  S
C190        N197   1.157       .  T
C191        N196   1.157       .  T
C192        N194   1.157       .  T
C193        N195   1.157       .  T
C198        C199   1.413       .  A
C198        C203   1.413       .  A
C199        C200   1.408       .  A
C199        C204   1.453       .  S
C200        C201   1.417       .  A
C200        C207   1.453       .  S
C201        C202   1.416       .  A
C202        C203   1.405       .  A
C202        C205   1.454       .  S
C203        C206   1.451       .  S
C204        N211   1.158       .  T
C205        N210   1.158       .  T
C206        N208   1.156       .  T
C207        N209   1.157       .  T
C212        C213   1.415       .  A
C212        C217   1.413       .  A
C213        C214   1.411       .  A
C213        C218   1.451       .  S
C214        C215   1.413       .  A
C214        C221   1.452       .  S
C215        C216   1.416       .  A
C216        C217   1.411       .  A
C216        C219   1.452       .  S
C217        C220   1.452       .  S
C218        N225   1.157       .  T
C219        N224   1.157       .  T
C220        N222   1.158       .  T
C221        N223   1.157       .  T
C226        C227   1.410       .  A
C226        C231   1.412       .  A
C227        C228   1.404       .  A
C227        C232   1.452       .  S
C228        C229   1.412       .  A
C228        C235   1.452       .  S
C229        C230   1.412       .  A
C230        C231   1.407       .  A
C230        C233   1.452       .  S
C231        C234   1.451       .  S
C232        N239   1.157       .  T
C233        N238   1.158       .  T
C234        N236   1.157       .  T
C235        N237   1.157       .  T
C240        C241   1.412       .  A
C240        C245   1.411       .  A
C241        C242   1.408       .  A
C241        C246   1.452       .  S
C242        C243   1.413       .  A
C242        C249   1.452       .  S
C243        C244   1.413       .  A
C244        C245   1.407       .  A
C244        C247   1.452       .  S
C245        C248   1.452       .  S
C246        N253   1.157       .  T
C247        N252   1.157       .  T
C248        N250   1.158       .  T
C249        N251   1.158       .  T
C254        C255   1.414       .  A
C254        C259   1.413       .  A
C255        C256   1.409       .  A
C255        C260   1.452       .  S
C256        C257   1.414       .  A
C256        C263   1.452       .  S
C257        C258   1.412       .  A
C258        C259   1.407       .  A
C258        C261   1.452       .  S
C259        C262   1.452       .  S
C260        N267   1.157       .  T
C261        N266   1.157       .  T
C262        N264   1.158       .  T
C263        N265   1.158       .  T
C268        C269   1.412       .  A
C268        C273   1.412       .  A
C269        C270   1.408       .  A
C269        C274   1.451       .  S
C270        C271   1.411       .  A
C270        C277   1.452       .  S
C271        C272   1.410       .  A
C272        C273   1.406       .  A
C272        C275   1.452       .  S
C273        C276   1.451       .  S
C274        N281   1.157       .  T
C275        N280   1.157       .  T
C276        N278   1.157       .  T
C277        N279   1.158       .  T
C282        C283   1.414       .  A
C282        C287   1.414       .  A
C283        C284   1.409       .  A
C283        C288   1.452       .  S
C284        C285   1.413       .  A
C284        C291   1.451       .  S
C285        C286   1.414       .  A
C286        C287   1.408       .  A
C286        C289   1.452       .  S
C287        C290   1.452       .  S
C288        N295   1.157       .  T
C289        N294   1.157       .  T
C290        N292   1.158       .  T
C291        N293   1.157       .  T
C296        C297   1.412       .  A
C296        C301   1.411       .  A
C297        C298   1.406       .  A
C297        C302   1.451       .  S
C298        C299   1.413       .  A
C298        C305   1.453       .  S
C299        C300   1.412       .  A
C300        C301   1.407       .  A
C300        C303   1.452       .  S
C301        C304   1.451       .  S
C302        N309   1.157       .  T
C303        N308   1.157       .  T
C304        N306   1.157       .  T
C305        N307   1.157       .  T
C310        C311   1.412       .  A
C310        C315   1.412       .  A
C311        C312   1.409       .  A
C311        C316   1.452       .  S
C312        C313   1.416       .  A
C312        C319   1.452       .  S
C313        C314   1.414       .  A
C314        C315   1.408       .  A
C314        C317   1.452       .  S
C315        C318   1.453       .  S
C316        N323   1.157       .  T
C317        N322   1.157       .  T
C318        N320   1.157       .  T
C319        N321   1.158       .  T
C324        C325   1.416       .  A
C324        C329   1.414       .  A
C325        C326   1.408       .  A
C325        C330   1.453       .  S
C326        C327   1.413       .  A
C326        C333   1.452       .  S
C327        C328   1.415       .  A
C328        C329   1.409       .  A
C328        C331   1.452       .  S
C329        C332   1.452       .  S
C330        N337   1.157       .  T
C331        N336   1.157       .  T
C332        N334   1.158       .  T
C333        N335   1.158       .  T
C338        C339   1.413       .  A
C338        C343   1.411       .  A
C339        C340   1.406       .  A
C339        C344   1.452       .  S
C340        C341   1.412       .  A
C340        C347   1.452       .  S
C341        C342   1.415       .  A
C342        C343   1.409       .  A
C342        C345   1.452       .  S
C343        C346   1.452       .  S
C344        N351   1.157       .  T
C345        N350   1.157       .  T
C346        N348   1.158       .  T
C347        N349   1.157       .  T
C352        C353   1.412       .  A
C352        C357   1.414       .  A
C353        C354   1.405       .  A
C353        C358   1.453       .  S
C354        C355   1.412       .  A
C354        C361   1.450       .  S
C355        C356   1.412       .  A
C356        C357   1.407       .  A
C356        C359   1.452       .  S
C357        C360   1.452       .  S
C358        N365   1.157       .  T
C359        N364   1.157       .  T
C360        N362   1.158       .  T
C361        N363   1.157       .  T
C366        C367   1.414       .  A
C366        C371   1.415       .  A
C367        C368   1.411       .  A
C367        C372   1.451       .  S
C368        C369   1.413       .  A
C368        C375   1.451       .  S
C369        C370   1.412       .  A
C370        C371   1.407       .  A
C370        C373   1.453       .  S
C371        C374   1.452       .  S
C372        N379   1.157       .  T
C373        N378   1.157       .  T
C374        N376   1.158       .  T
C375        N377   1.157       .  T
C380        C381   1.413       .  A
C380        C385   1.414       .  A
C381        C382   1.404       .  A
C381        C386   1.452       .  S
C382        C383   1.411       .  A
C382        C389   1.451       .  S
C383        C384   1.412       .  A
C384        C385   1.408       .  A
C384        C387   1.452       .  S
C385        C388   1.452       .  S
C386        N393   1.157       .  T
C387        N392   1.158       .  T
C388        N390   1.157       .  T
C389        N391   1.156       .  T
C394        C395   1.412       .  A
C394        C399   1.409       .  A
C395        C396   1.410       .  A
C395        C400   1.451       .  S
C396        C397   1.410       .  A
C396        C403   1.451       .  S
C397        C398   1.412       .  A
C398        C399   1.407       .  A
C398        C401   1.451       .  S
C399        C402   1.451       .  S
C400        N407   1.157       .  T
C401        N406   1.157       .  T
C402        N404   1.157       .  T
C403        N405   1.157       .  T
C408        C409   1.414       .  A
C408        C413   1.413       .  A
C409        C410   1.409       .  A
C409        C414   1.451       .  S
C410        C411   1.414       .  A
C410        C417   1.453       .  S
C411        C412   1.415       .  A
C412        C413   1.410       .  A
C412        C415   1.451       .  S
C413        C416   1.453       .  S
C414        N421   1.158       .  T
C415        N420   1.158       .  T
C416        N418   1.157       .  T
C417        N419   1.157       .  T
C422        C423   1.413       .  A
C422        C427   1.411       .  A
C423        C424   1.408       .  A
C423        C428   1.452       .  S
C424        C425   1.413       .  A
C424        C431   1.452       .  S
C425        C426   1.416       .  A
C426        C427   1.406       .  A
C426        C429   1.453       .  S
C427        C430   1.453       .  S
C428        N435   1.157       .  T
C429        N434   1.158       .  T
C430        N432   1.157       .  T
C431        N433   1.157       .  T
C436        C437   1.416       .  A
C436        C441   1.415       .  A
C437        C438   1.411       .  A
C437        C442   1.453       .  S
C438        C439   1.414       .  A
C438        C445   1.451       .  S
C439        C440   1.412       .  A
C440        C441   1.409       .  A
C440        C443   1.452       .  S
C441        C444   1.452       .  S
C442        N449   1.157       .  T
C443        N448   1.157       .  T
C444        N446   1.157       .  T
C445        N447   1.157       .  T
C450        C451   1.413       .  A
C450        C455   1.413       .  A
C451        C452   1.407       .  A
C451        C456   1.452       .  S
C452        C453   1.413       .  A
C452        C459   1.452       .  S
C453        C454   1.416       .  A
C454        C455   1.409       .  A
C454        C457   1.452       .  S
C455        C458   1.453       .  S
C456        N463   1.157       .  T
C457        N462   1.157       .  T
C458        N460   1.157       .  T
C459        N461   1.157       .  T
C464        C465   1.411       .  A
C464        C469   1.412       .  A
C465        C466   1.407       .  A
C465        C470   1.452       .  S
C466        C467   1.416       .  A
C466        C473   1.453       .  S
C467        C468   1.412       .  A
C468        C469   1.408       .  A
C468        C471   1.452       .  S
C469        C472   1.450       .  S
C470        N477   1.157       .  T
C471        N476   1.157       .  T
C472        N474   1.156       .  T
C473        N475   1.157       .  T
C478        C479   1.415       .  A
C478        C483   1.414       .  A
C479        C480   1.406       .  A
C479        C484   1.452       .  S
C480        C481   1.410       .  A
C480        C487   1.452       .  S
C481        C482   1.412       .  A
C482        C483   1.408       .  A
C482        C485   1.451       .  S
C483        C486   1.452       .  S
C484        N491   1.157       .  T
C485        N490   1.157       .  T
C486        N488   1.157       .  T
C487        N489   1.157       .  T
C492        C493   1.414       .  A
C492        C497   1.412       .  A
C493        C494   1.410       .  A
C493        C498   1.452       .  S
C494        C495   1.413       .  A
C494        C501   1.451       .  S
C495        C496   1.414       .  A
C496        C497   1.409       .  A
C496        C499   1.452       .  S
C497        C500   1.452       .  S
C498        N505   1.157       .  T
C499        N504   1.157       .  T
C500        N502   1.157       .  T
C501        N503   1.157       .  T
C506        C507   1.417       .  A
C506        C511   1.414       .  A
C507        C508   1.406       .  A
C507        C512   1.453       .  S
C508        C509   1.411       .  A
C508        C515   1.452       .  S
C509        C510   1.413       .  A
C510        C511   1.407       .  A
C510        C513   1.450       .  S
C511        C514   1.453       .  S
C512        N519   1.157       .  T
C513        N518   1.156       .  T
C514        N516   1.158       .  T
C515        N517   1.157       .  T
