geometry optimzed in LAMMPS
_audit_creation_date              2020-12-01 
_audit_creation_method            'lammps2cif' 
_symmetry_space_group_name_H-M    'P1' 
_symmetry_Int_Tables_number       1 
_symmetry_cell_setting            triclinic 
loop_ 
_symmetry_equiv_pos_as_xyz 
  x,y,z 
_cell_length_a                    41.83280542 
_cell_length_b                    41.853556203738314 
_cell_length_c                    43.3910623187955 
_cell_angle_alpha                 90.03633666689693 
_cell_angle_beta                  89.53209345104233 
_cell_angle_gamma                 131.04716489652697 
loop_ 
_atom_site_label 
_atom_site_type_symbol 
_atom_site_fract_x 
_atom_site_fract_y 
_atom_site_fract_z 
_atom_site_charge 
C1          C  0.82627664  0.40037369  0.02424413     0.80800
N2          N  0.80914122  0.39593665  0.99655534    -0.77500
C3          C  0.82920596  0.40557396  0.47124570     0.83300
N4          N  0.86728094  0.41550899  0.47283795    -0.77400
C5          C  0.88446189  0.41980506  0.50070953     0.83400
N6          N  0.86364478  0.40882676  0.02528782    -0.79100
C7          C  0.43467943  0.98163247  0.02505862     0.80800
N8          N  0.43787796  0.99827054  0.99729543    -0.77500
C9          C  0.42560689  0.97572450  0.46830832     0.83300
N10         N  0.41845901  0.93908775  0.46981622    -0.77400
C11         C  0.41621577  0.92262705  0.49762497     0.83400
N12         N  0.42623326  0.94424331  0.02615382    -0.79100
C13         C  0.42696290  0.35459716  0.47419693     0.80800
N14         N  0.44090919  0.35203438  0.50135349    -0.77500
C15         C  0.43649297  0.36658534  0.02870618     0.83300
N16         N  0.41762690  0.38336479  0.02856941    -0.77400
C17         C  0.40180452  0.38386960  0.50026429     0.83400
N18         N  0.40784889  0.37116306  0.47361284    -0.79100
O19         O  0.60396630  0.25437020  0.28953671    -0.84700
O20         O  0.53407124  0.17548147  0.26983704    -0.81800
C21         C  0.50467815  0.16557137  0.28771097     0.98700
O22         O  0.49037727  0.18420580  0.28562078    -0.81800
O23         O  0.49008656  0.24872817  0.27387004    -0.84400
C24         C  0.51537128  0.27707217  0.29338668     1.03300
O25         O  0.55464384  0.29792914  0.29080872    -0.77200
O26         O  0.62958801  0.31771409  0.27595866    -0.77400
C27         C  0.62939053  0.29376356  0.29396772     1.03200
O28         O  0.63176164  0.28137169  0.22697845    -0.84700
O29         O  0.55771378  0.20566530  0.20749755    -0.81800
C30         C  0.51871352  0.17593139  0.20313434     0.98800
O31         O  0.49142988  0.17090342  0.22082560    -0.81800
O32         O  0.49787893  0.23962797  0.20892666    -0.84400
C33         C  0.51331617  0.27751015  0.20778425     1.03200
O34         O  0.54033948  0.30389361  0.22744336    -0.77200
O35         O  0.61069403  0.31456457  0.21168725    -0.77400
C36         C  0.63485998  0.30668620  0.20849865     1.03200
Cr37       Cr  0.57981129  0.23058445  0.24852850     1.93700
Cr38       Cr  0.49656068  0.21356757  0.24741940     1.93200
Cr39       Cr  0.58167289  0.30448464  0.25128321     1.39100
O40         O  0.55253096  0.24943494  0.24917022    -1.22500
C41         C  0.98223283  0.44198502  0.47650638     0.80800
N42         N  0.94547761  0.43457340  0.47563749    -0.77500
C43         C  0.92499113  0.42914416  0.50223151     0.83300
N44         N  0.93892733  0.42098340  0.02747327    -0.77400
C45         C  0.97434057  0.42570253  0.02860108     0.83400
N46         N  0.99843320  0.44395922  0.50398639    -0.79100
C47         C  0.39736876  0.82671018  0.47292225     0.80800
N48         N  0.39173107  0.80853591  0.50055410    -0.77500
C49         C  0.39562268  0.82615984  0.02833037     0.83300
N50         N  0.40491612  0.86397241  0.02786752    -0.77400
C51         C  0.40833609  0.88284509  0.49889605     0.83400
N52         N  0.40552562  0.86396221  0.47227797    -0.79100
C53         C  0.36096147  0.43620540  0.02936000     0.80800
N54         N  0.34600573  0.43764545  0.49978424    -0.77500
C55         C  0.35069293  0.42485625  0.47278693     0.83300
N56         N  0.36902472  0.40743248  0.47274083    -0.77400
C57         C  0.38138767  0.40205971  0.49982902     0.83400
N58         N  0.37882390  0.41846926  0.02881353    -0.79100
O59         O  0.16654494  0.52655369  0.27404972    -0.84700
O60         O  0.24388635  0.60149114  0.29031358    -0.81800
C61         C  0.28330893  0.63034548  0.29301497     0.98700
O62         O  0.30807075  0.63141365  0.27507400    -0.81800
O63         O  0.29721679  0.56130838  0.29232163    -0.84400
C64         C  0.28011281  0.52306653  0.29553427     1.03300
O65         O  0.25094665  0.49524692  0.27742292    -0.77200
O66         O  0.18365420  0.49055032  0.29164598    -0.77400
C67         C  0.16241000  0.50200339  0.29394436     1.03200
O68         O  0.19258077  0.54680876  0.21087160    -0.84700
O69         O  0.26596601  0.62537907  0.22675209    -0.81800
C70         C  0.29189792  0.62962556  0.20808215     0.98800
O71         O  0.30333954  0.60857004  0.21160199    -0.81800
O72         O  0.30072367  0.54406329  0.22914745    -0.84400
C73         C  0.27447354  0.51497807  0.21051739     1.03200
O74         O  0.23550138  0.49570648  0.21316491    -0.77200
O75         O  0.16332564  0.48314394  0.22686429    -0.77400
C76         C  0.16465508  0.50722258  0.20803988     1.03200
Cr77       Cr  0.21895483  0.57334807  0.25059139     1.93700
Cr78       Cr  0.29829583  0.58395413  0.25204568     1.93200
Cr79       Cr  0.21055563  0.49509455  0.25225207     1.39100
O80         O  0.24260562  0.55071529  0.25163469    -1.22500
C81         C  0.32402620  0.51806502  0.37027060    -0.13700
C82         C  0.31616668  0.48017256  0.36642477     0.16700
C83         C  0.29832985  0.45746194  0.33866953     0.02900
C84         C  0.28802769  0.47287972  0.31566571    -0.12200
C85         C  0.29489949  0.51035834  0.31971382    -0.03300
C86         C  0.31424891  0.53370946  0.34713897     0.02200
C87         C  0.32490496  0.46411651  0.39248356     0.09000
N88         N  0.28925365  0.41822839  0.33382594     0.65400
H89         H  0.27359727  0.45482390  0.29467660     0.18300
N90         N  0.32322830  0.57269034  0.35233594     0.75900
H91         H  0.33793872  0.53567111  0.39150352     0.09800
C92         C  0.35636703  0.46066398  0.39118253     0.03500
C93         C  0.36218929  0.44454416  0.41693560    -0.05200
C94         C  0.33789862  0.43269947  0.44397195    -0.23600
C95         C  0.30516930  0.43439635  0.44442082     0.12700
C96         C  0.29958631  0.45063302  0.41895124    -0.12800
N97         N  0.38364265  0.47488112  0.36465338     0.64400
H98         H  0.38758834  0.44379552  0.41653057     0.12300
N99         N  0.27693254  0.41924562  0.47038888     0.61100
H100        H  0.27462985  0.45205857  0.41955533     0.08400
O101        O  0.35445948  0.60599202  0.33876281    -0.40400
O102        O  0.30608002  0.57566100  0.37488092    -0.39600
O103        O  0.27205113  0.39048997  0.35488340    -0.39600
O104        O  0.29476008  0.40954446  0.30751360    -0.37300
O105        O  0.25873124  0.38306274  0.48169465    -0.38200
O106        O  0.26699101  0.44015866  0.48017264    -0.34300
O107        O  0.39738057  0.50809315  0.35034742    -0.35700
O108        O  0.39744588  0.45664732  0.35725900    -0.40000
C109        C  0.33024709  0.43716360  0.11193922    -0.13700
C110        C  0.32915689  0.46989217  0.11002238     0.16700
C111        C  0.34189828  0.49344193  0.08252417     0.02900
C112        C  0.35429746  0.48314775  0.05718398    -0.12200
C113        C  0.35397160  0.44937873  0.05847431    -0.03300
C114        C  0.34293207  0.42693138  0.08653796     0.02200
C115        C  0.31528734  0.47984625  0.13694193     0.09000
N116        N  0.34061963  0.52668989  0.07957999     0.65400
H117        H  0.36287159  0.50087044  0.03594543     0.18300
N118        N  0.34295784  0.39288866  0.08941058     0.75900
H119        H  0.32117663  0.41950684  0.13327420     0.09800
C120        C  0.27352667  0.45047556  0.14867852     0.03500
C121        C  0.26110203  0.46223502  0.17313336    -0.05200
C122        C  0.28955165  0.50291488  0.18601306    -0.23600
C123        C  0.33173115  0.53167802  0.17471288     0.12700
C124        C  0.34410469  0.51993159  0.15036731    -0.12800
N125        N  0.24305251  0.40930370  0.13531026     0.64400
H126        H  0.22874814  0.43971667  0.18165009     0.12300
N127        N  0.36202640  0.57348918  0.18686907     0.61100
H128        H  0.37631468  0.54248529  0.14154869     0.08400
O129        O  0.30888645  0.35610558  0.09588425    -0.40400
O130        O  0.37099433  0.39521194  0.59045684    -0.39600
O131        O  0.37310867  0.56305154  0.07053757    -0.39600
O132        O  0.30621542  0.51896893  0.08375413    -0.37300
O133        O  0.38563376  0.58042391  0.20866691    -0.38200
O134        O  0.36946012  0.60427455  0.17297305    -0.34300
O135        O  0.22024909  0.37685689  0.15240939    -0.35700
O136        O  0.23647117  0.40553628  0.10666580    -0.40000
C137        C  0.36313633  0.73897294  0.41755606    -0.13700
C138        C  0.35958373  0.75383531  0.39012701     0.16700
C139        C  0.37315991  0.79482731  0.38882238     0.02900
C140        C  0.38832438  0.81937107  0.41571172    -0.12200
C141        C  0.38949041  0.80350128  0.44392977    -0.03300
C142        C  0.37834545  0.76335687  0.44422370     0.02200
C143        C  0.34031815  0.72479769  0.36370788     0.09000
N144        N  0.37003165  0.81123101  0.36100819     0.65400
H145        H  0.39687042  0.84992990  0.41483518     0.18300
N146        N  0.38143059  0.74623086  0.47140047     0.75900
H147        H  0.35363094  0.70789189  0.41830374     0.09800
C148        C  0.36422639  0.73093292  0.33770902     0.03500
C149        C  0.34436861  0.70033790  0.31445639    -0.05200
C150        C  0.30113110  0.66376227  0.31658194    -0.23600
C151        C  0.27682964  0.65935535  0.34189295     0.12700
C152        C  0.29695304  0.68946202  0.36536565    -0.12800
N153        N  0.40865399  0.76716365  0.33494521     0.64400
H154        H  0.36329117  0.70470296  0.29497670     0.12300
N155        N  0.23198109  0.62479306  0.34439832     0.61100
H156        H  0.27850020  0.68546159  0.38508598     0.08400
O157        O  0.41723769  0.76005510  0.48012667    -0.40400
O158        O  0.37389574  0.72695634  0.98487502    -0.39600
O159        O  0.33721131  0.78811491  0.34467256    -0.39600
O160        O  0.39834905  0.85000707  0.35422932    -0.37300
O161        O  0.21645501  0.60348080  0.36908101    -0.38200
O162        O  0.20763366  0.62216223  0.32542070    -0.34300
O163        O  0.43308666  0.77853658  0.35735584    -0.35700
O164        O  0.42421719  0.78563387  0.30923814    -0.40000
C165        C  0.33128021  0.68189598  0.12949452    -0.13700
C166        C  0.34941378  0.72357296  0.13652900     0.16700
C167        C  0.34793284  0.73392054  0.16725328     0.02900
C168        C  0.32759802  0.70207819  0.18993218    -0.12200
C169        C  0.31011590  0.66071562  0.18287501    -0.03300
C170        C  0.31175263  0.65030966  0.15229411     0.02200
C171        C  0.36600049  0.75434787  0.11077322     0.09000
N172        N  0.36776637  0.77652662  0.17594277     0.65400
H173        H  0.32681898  0.70997408  0.21356235     0.18300
N174        N  0.29220669  0.60772425  0.14374253     0.75900
H175        H  0.33111775  0.67358279  0.10580929     0.09800
C176        C  0.39521910  0.76119665  0.08887258     0.03500
C177        C  0.40444163  0.78502539  0.06225072    -0.05200
C178        C  0.38630698  0.80330380  0.05747780    -0.23600
C179        C  0.35826646  0.79769697  0.07984328     0.12700
C180        C  0.34848048  0.77331515  0.10621324    -0.12800
N181        N  0.41581433  0.74442680  0.09339409     0.64400
H182        H  0.42637471  0.78981461  0.04524097     0.12300
N183        N  0.33705136  0.81370775  0.07515526     0.61100
H184        H  0.32522831  0.76721823  0.12250395     0.08400
O185        O  0.25664738  0.57652863  0.15500835    -0.40400
O186        O  0.30803785  0.60138766  0.12230925    -0.39600
O187        O  0.35252794  0.78300800  0.19777598    -0.39600
O188        O  0.40282576  0.80767130  0.16404653    -0.37300
O189        O  0.31814907  0.80667347  0.05017922    -0.38200
O190        O  0.33212820  0.82963440  0.09738612    -0.34300
O191        O  0.42500108  0.73296030  0.07057059    -0.35700
O192        O  0.42809490  0.74432539  0.11985305    -0.40000
C193        C  0.01353832  0.45106223  0.11149152    -0.13700
C194        C  0.04362634  0.44618707  0.10996915     0.16700
C195        C  0.04685622  0.42957195  0.08312512     0.02900
C196        C  0.02149524  0.42012538  0.05777597    -0.12200
C197        C  0.99316386  0.42756948  0.05830676    -0.03300
C198        C  0.98795557  0.44148384  0.08614125     0.02200
C199        C  0.07351173  0.46133994  0.13568555     0.09000
N200        N  0.07782372  0.42496927  0.08047736     0.65400
H201        H  0.02574206  0.40898485  0.03691698     0.18300
N202        N  0.95819260  0.44761020  0.08885050     0.75900
H203        H  0.01055800  0.46323767  0.13233808     0.09800
C204        C  0.10423758  0.50491278  0.14217879     0.03500
C205        C  0.13304697  0.51859758  0.16592356    -0.05200
C206        C  0.13261984  0.48991013  0.18331757    -0.23600
C207        C  0.10125942  0.44609213  0.17696941     0.12700
C208        C  0.07202115  0.43229499  0.15333576    -0.12800
N209        N  0.10739040  0.53579117  0.12434023     0.64400
H210        H  0.15653421  0.55228625  0.17032841     0.12300
N211        N  0.09873828  0.41521162  0.19396136     0.61100
H212        H  0.04836658  0.39875327  0.14840568     0.08400
O213        O  0.97085098  0.48336208  0.09656007    -0.40400
O214        O  0.91903076  0.41576408  0.08974905    -0.39600
O215        O  0.06676273  0.39004497  0.07223235    -0.39600
O216        O  0.11670527  0.45679631  0.08342014    -0.37300
O217        O  0.06620567  0.38785352  0.21010570    -0.38200
O218        O  0.12600121  0.41149886  0.18939983    -0.34300
O219        O  0.11339532  0.56618313  0.13759134    -0.35700
O220        O  0.10856661  0.53528464  0.09527336    -0.40000
C221        C  0.11169057  0.46912154  0.37344351    -0.13700
C222        C  0.07336212  0.45999740  0.36779117     0.16700
C223        C  0.06365756  0.46282740  0.33727115     0.02900
C224        C  0.09347402  0.47689228  0.31366363    -0.12200
C225        C  0.13186110  0.48640220  0.31949701    -0.03300
C226        C  0.14066774  0.48171663  0.34961816     0.02200
C227        C  0.04635760  0.45196700  0.39450995     0.09000
N228        N  0.02369250  0.45107103  0.32980938     0.65400
H229        H  0.08625088  0.47952423  0.29036387     0.18300
N230        N  0.17989730  0.49202563  0.35674843     0.75900
H231        H  0.12002006  0.46812822  0.39678603     0.09800
C232        C  0.03555391  0.42318927  0.41833518     0.03500
C233        C  0.01530128  0.42135350  0.44501221    -0.05200
C234        C  0.00391641  0.44611280  0.44798162    -0.23600
C235        C  0.01337378  0.47386656  0.42389965     0.12700
C236        C  0.03485427  0.47675676  0.39759930    -0.12800
N237        N  0.04416848  0.39520377  0.41562989     0.64400
H238        H  0.00721124  0.39945750  0.46332659     0.12300
N239        N  0.00355096  0.50085731  0.42639136     0.61100
H240        H  0.04414439  0.49980578  0.37992021     0.08400
O241        O  0.17973235  0.46524525  0.37030338    -0.40400
O242        O  0.21462047  0.52908305  0.35208015    -0.39600
O243        O  0.02157957  0.47013458  0.30849901    -0.39600
O244        O  0.98984465  0.41914291  0.34244313    -0.37300
O245        O  0.02380974  0.51830274  0.96013602    -0.38200
O246        O  0.99127786  0.50806572  0.40303593    -0.34300
O247        O  0.05333552  0.38506613  0.43920810    -0.35700
O248        O  0.03868140  0.37734541  0.39033145    -0.40000
C249        C  0.49110166  0.33923228  0.16276332    -0.13700
C250        C  0.47340758  0.31518795  0.13583274     0.16700
C251        C  0.46830154  0.27848530  0.13268788     0.02900
C252        C  0.48129376  0.26677652  0.15653329    -0.12200
C253        C  0.49923592  0.29084502  0.18358096    -0.03300
C254        C  0.50395716  0.32742897  0.18659878     0.02200
C255        C  0.46473957  0.33125127  0.10980895     0.09000
N256        N  0.45026756  0.25303570  0.10538721     0.65400
H257        H  0.47751198  0.23872801  0.15379038     0.18300
N258        N  0.52159599  0.35291325  0.21369492     0.75900
H259        H  0.49555192  0.36771417  0.16506208     0.09800
C260        C  0.43150044  0.33211485  0.11049606     0.03500
C261        C  0.42465843  0.34678225  0.08437595    -0.05200
C262        C  0.44993393  0.36003099  0.05771450    -0.23600
C263        C  0.48479481  0.36162807  0.05801859     0.12700
C264        C  0.49131940  0.34665906  0.08386653    -0.12800
N265        N  0.40339283  0.31656308  0.13668217     0.64400
H266        H  0.39782043  0.34530057  0.08418796     0.12300
N267        N  0.51427618  0.37906188  0.03258644     0.61100
H268        H  0.51769258  0.34737650  0.08392996     0.08400
O269        O  0.49896954  0.34129084  0.23764155    -0.40400
O270        O  0.55815607  0.38911387  0.21265395    -0.39600
O271        O  0.46538556  0.23754912  0.09407901    -0.39600
O272        O  0.41747909  0.24358259  0.09368524    -0.37300
O273        O  0.52766457  0.41303782  0.01977809    -0.38200
O274        O  0.53079917  0.36345503  0.02527631    -0.34300
O275        O  0.38709565  0.33257500  0.14335337    -0.35700
O276        O  0.39153968  0.28431412  0.15142969    -0.40000
C277        C  0.45076772  0.30079190  0.42072773    -0.13700
C278        C  0.46131608  0.32366814  0.39340598     0.16700
C279        C  0.45679052  0.35410510  0.39171151     0.02900
C280        C  0.44293237  0.36208207  0.41778901    -0.12200
C281        C  0.43408338  0.34043760  0.44569960    -0.03300
C282        C  0.43663127  0.30830668  0.44673316     0.02200
C283        C  0.47614150  0.31423402  0.36683964     0.09000
N284        N  0.46833713  0.37862354  0.36424041     0.65400
H285        H  0.44140152  0.38690859  0.41668622     0.18300
N286        N  0.42402574  0.28233985  0.47366734     0.75900
H287        H  0.45298177  0.27642067  0.42163044     0.09800
C288        C  0.51511190  0.32359853  0.36795394     0.03500
C289        C  0.52657201  0.31025135  0.34415748    -0.05200
C290        C  0.49978664  0.28750549  0.31890262    -0.23600
C291        C  0.46031288  0.27769654  0.31805870     0.12700
C292        C  0.44916240  0.29160461  0.34183698    -0.12800
N293        N  0.54351367  0.34704859  0.39305210     0.64400
H294        H  0.55691893  0.31814045  0.34538923     0.12300
N295        N  0.43109869  0.25358672  0.29350134     0.61100
H296        H  0.41868089  0.28350692  0.34132036     0.08400
O297        O  0.44552143  0.27269794  0.48229832    -0.40400
O298        O  0.38124268  0.26554162  0.98566799    -0.39600
O299        O  0.44181848  0.37924038  0.35134748    -0.39600
O300        O  0.50590096  0.40196584  0.35401540    -0.37300
O301        O  0.40987913  0.21411591  0.29254321    -0.38200
O302        O  0.42035582  0.26979568  0.27682123    -0.34300
O303        O  0.55495057  0.33117309  0.40932318    -0.35700
O304        O  0.55927597  0.38465596  0.39777677    -0.40000
C305        C  0.43231576  0.07728783  0.34626802    -0.13700
C306        C  0.46021549  0.07334556  0.35935958     0.16700
C307        C  0.50208351  0.09839898  0.34752728     0.02900
C308        C  0.51487797  0.12661714  0.32315916    -0.12200
C309        C  0.48769158  0.13211077  0.31119646    -0.03300
C310        C  0.44586172  0.10686654  0.32280205     0.02200
C311        C  0.44565455  0.04397532  0.38586536     0.09000
N312        N  0.53271522  0.09740280  0.36094480     0.65400
H313        H  0.54722963  0.14623333  0.31470974     0.18300
N314        N  0.41660450  0.11046514  0.31079391     0.75900
H315        H  0.39993468  0.05766688  0.35464314     0.09800
C316        C  0.42793795  0.04644159  0.41265117     0.03500
C317        C  0.41903026  0.02149825  0.43833788    -0.05200
C318        C  0.42856706  0.99496279  0.43853166    -0.23600
C319        C  0.44356467  0.99039166  0.41111859     0.12700
C320        C  0.45129927  0.01433904  0.38496116    -0.12800
N321        N  0.42101149  0.07571828  0.41499539     0.64400
H322        H  0.40658198  0.02466752  0.45887066     0.12300
N323        N  0.45408631  0.96411588  0.41001861     0.61100
H324        H  0.46385517  0.01138025  0.36432165     0.08400
O325        O  0.40318261  0.12412135  0.32767414    -0.40400
O326        O  0.40115474  0.09631658  0.28436299    -0.39600
O327        O  0.55863292  0.09950495  0.34386791    -0.39600
O328        O  0.53764010  0.10007153  0.38977841    -0.37300
O329        O  0.43000443  0.92905085  0.39627917    -0.38200
O330        O  0.49026494  0.97871234  0.41846242    -0.34300
O331        O  0.38698017  0.06384631  0.42676822    -0.35700
O332        O  0.45074605  0.11451932  0.40903513    -0.40000
C333        C  0.45342250  0.06400342  0.07875500    -0.13700
C334        C  0.47131938  0.06055552  0.10417366     0.16700
C335        C  0.47351073  0.02827684  0.10497669     0.02900
C336        C  0.45899189  0.00110370  0.07958158    -0.12200
C337        C  0.44271155  0.00575502  0.05341523    -0.03300
C338        C  0.43848208  0.03673019  0.05367118     0.02200
C339        C  0.48555231  0.09020923  0.12997229     0.09000
N340        N  0.49181149  0.02373781  0.13063672     0.65400
H341        H  0.46251816  0.97767658  0.07966273     0.18300
N342        N  0.41797287  0.04021245  0.02921973     0.75900
H343        H  0.45025352  0.08771369  0.07876036     0.09800
C344        C  0.51809899  0.13441513  0.12572367     0.03500
C345        C  0.52768937  0.16177612  0.14977240    -0.05200
C346        C  0.50537086  0.14601025  0.17787010    -0.23600
C347        C  0.47282229  0.10190341  0.18196851     0.12700
C348        C  0.46334620  0.07440311  0.15810929    -0.12800
N349        N  0.54184675  0.15189026  0.09733981     0.64400
H350        H  0.55303500  0.19562116  0.14662911     0.12300
N351        N  0.45011020  0.08453894  0.21054215     0.61100
H352        H  0.43799634  0.04057851  0.16131960     0.08400
O353        O  0.38184570  0.00772992  0.02025080    -0.40400
O354        O  0.42712854  0.07428359  0.51583900    -0.39600
O355        O  0.47731886  0.98741585  0.13890397    -0.39600
O356        O  0.52481541  0.05599558  0.14329771    -0.37300
O357        O  0.41770750  0.08033510  0.21523268    -0.38200
O358        O  0.45886997  0.06816536  0.22916339    -0.34300
O359        O  0.55270047  0.18586373  0.08661194    -0.35700
O360        O  0.55500135  0.13541999  0.08423512    -0.40000
C361        C  0.78758873  0.36798021  0.38967842    -0.13700
C362        C  0.75442821  0.36848841  0.38995613     0.16700
C363        C  0.74940422  0.38592952  0.41527051     0.02900
C364        C  0.77622558  0.40053562  0.44055135    -0.12200
C365        C  0.80765419  0.39732316  0.44149951    -0.03300
C366        C  0.81423366  0.38222267  0.41518625     0.02200
C367        C  0.72405091  0.34917731  0.36435098     0.09000
N368        N  0.71628960  0.38764273  0.41611525     0.65400
H369        H  0.77104241  0.41267530  0.46021707     0.18300
N370        N  0.84583841  0.37851828  0.41467563     0.75900
H371        H  0.79176974  0.35498583  0.37003941     0.09800
C372        C  0.72970910  0.37360850  0.33920847     0.03500
C373        C  0.69816528  0.35526372  0.31687228    -0.05200
C374        C  0.66080097  0.31245242  0.31908610    -0.23600
C375        C  0.65527375  0.28800094  0.34451695     0.12700
C376        C  0.68715281  0.30648031  0.36662855    -0.12800
N377        N  0.76751587  0.41698026  0.33603836     0.64400
H378        H  0.70334773  0.37446401  0.29742664     0.12300
N379        N  0.61684654  0.24507900  0.34902235     0.61100
H380        H  0.68239084  0.28789394  0.38639128     0.08400
O381        O  0.87947328  0.40453463  0.39915528    -0.40400
O382        O  0.83783096  0.34629485  0.42634645    -0.39600
O383        O  0.67798156  0.35386439  0.41536576    -0.39600
O384        O  0.72504361  0.42220598  0.42179660    -0.37300
O385        O  0.61820569  0.21606580  0.35258347    -0.38200
O386        O  0.58225519  0.23697044  0.35327772    -0.34300
O387        O  0.80083243  0.42615957  0.32533154    -0.35700
O388        O  0.76664036  0.44605277  0.34127782    -0.40000
C389        C  0.69325637  0.35926590  0.13254325    -0.13700
C390        C  0.72230307  0.35298462  0.13264662     0.16700
C391        C  0.72488821  0.33474251  0.15865637     0.02900
C392        C  0.69754736  0.32202785  0.18374767    -0.12200
C393        C  0.66699278  0.32650224  0.18329975    -0.03300
C394        C  0.66584569  0.34654634  0.15760745     0.02200
C395        C  0.74912499  0.36497858  0.10507746     0.09000
N396        N  0.75346330  0.32686325  0.15924314     0.65400
H397        H  0.69914673  0.30691666  0.20319515     0.18300
N398        N  0.63657260  0.35340416  0.15616964     0.75900
H399        H  0.69170165  0.37391179  0.11270505     0.09800
C400        C  0.73079741  0.34500918  0.07664026     0.03500
C401        C  0.75692426  0.35823748  0.05074150    -0.05200
C402        C  0.80118785  0.39070747  0.05249143    -0.23600
C403        C  0.81960304  0.41148692  0.08093813     0.12700
C404        C  0.79318963  0.39779940  0.10702793    -0.12800
N405        N  0.68592851  0.31054531  0.07386344     0.64400
H406        H  0.74248031  0.34181528  0.02919862     0.12300
N407        N  0.86412243  0.44766194  0.08348799     0.61100
H408        H  0.80680066  0.41371720  0.12884165     0.08400
O409        O  0.60902986  0.33599651  0.13529124    -0.40400
O410        O  0.64266229  0.38199603  0.17238273    -0.39600
O411        O  0.77644172  0.33728711  0.18245091    -0.39600
O412        O  0.75284229  0.30587451  0.13796800    -0.37300
O413        O  0.88342436  0.47481936  0.06203597    -0.38200
O414        O  0.88247950  0.45615483  0.10897967    -0.34300
O415        O  0.66663296  0.30803165  0.05048155    -0.35700
O416        O  0.66619424  0.28058597  0.09328455    -0.40000
C417        C  0.82511131  0.40390423  0.52568335     0.80800
N418        N  0.80868457  0.39999468  0.49773539    -0.77500
C419        C  0.82854401  0.40016786  0.96980015     0.83300
N420        N  0.86618654  0.40905950  0.97100212    -0.77400
C421        C  0.88399290  0.41371040  0.99870271     0.83400
N422        N  0.86308889  0.41358410  0.52700325    -0.79100
C423        C  0.42816616  0.97970899  0.52270371     0.80800
N424        N  0.43074748  0.99573607  0.49478147    -0.77500
C425        C  0.43163622  0.97810245  0.97064999     0.83300
N426        N  0.42286925  0.94061613  0.97191391    -0.77400
C427        C  0.42035332  0.92369199  0.99957989     0.83400
N428        N  0.42113494  0.94303298  0.52404922    -0.79100
C429        C  0.42831206  0.35775520  0.97483975     0.80800
N430        N  0.44132813  0.35367059  0.00184059    -0.77500
C431        C  0.43530531  0.36467719  0.52799949     0.83300
N432        N  0.41519856  0.38016230  0.52748628    -0.77400
C433        C  0.40480332  0.38817140  0.00154035     0.83400
N434        N  0.41040418  0.37553990  0.97464014    -0.79100
O435        O  0.59837786  0.24809411  0.78960390    -0.84700
O436        O  0.52727001  0.17001420  0.76878220    -0.81800
C437        C  0.49895602  0.16081068  0.78753382     0.98700
O438        O  0.48599450  0.18076910  0.78652400    -0.81800
O439        O  0.48613408  0.24582317  0.77528403    -0.84400
C440        C  0.51172384  0.27512574  0.79411897     1.03300
O441        O  0.55084334  0.29503170  0.79186096    -0.77200
O442        O  0.62485816  0.31215577  0.77713231    -0.77400
C443        C  0.62465314  0.28747952  0.79429056     1.03200
O444        O  0.62643160  0.27624081  0.72747613    -0.84700
O445        O  0.55136114  0.20190339  0.70697019    -0.81800
C446        C  0.51220266  0.17262449  0.70268396     0.98800
O447        O  0.48547280  0.16754000  0.72113135    -0.81800
O448        O  0.49280840  0.23699132  0.71037770    -0.84400
C449        C  0.50966987  0.27535919  0.70902337     1.03200
O450        O  0.53726919  0.30137396  0.72855234    -0.77200
O451        O  0.60644560  0.31053133  0.71282228    -0.77400
C452        C  0.63031288  0.30236240  0.70948004     1.03200
Cr453      Cr  0.57383372  0.22550846  0.74835374     1.93700
Cr454      Cr  0.49168632  0.21035120  0.74849210     1.93200
Cr455      Cr  0.57767378  0.30067313  0.75242125     1.39100
O456        O  0.54759998  0.24549352  0.74990771    -1.22500
C457        C  0.97968748  0.43156844  0.97438633     0.80800
N458        N  0.94430175  0.42673552  0.97340904    -0.77500
C459        C  0.92359530  0.42112056  0.99993104     0.83300
N460        N  0.94162792  0.43130040  0.52988875    -0.77400
C461        C  0.97878504  0.43913207  0.53081853     0.83400
N462        N  0.99423894  0.43068391  0.00183500    -0.79100
C463        C  0.39889753  0.82687169  0.97403884     0.80800
N464        N  0.39276951  0.80797270  0.00145267    -0.77500
C465        C  0.39409380  0.82669913  0.52721408     0.83300
N466        N  0.40228411  0.86394329  0.52643846    -0.77400
C467        C  0.41122823  0.88330912  0.00052101     0.83400
N468        N  0.40788599  0.86450647  0.97376286    -0.79100
C469        C  0.35794045  0.43237181  0.52680046     0.80800
N470        N  0.34906804  0.44203593  0.00251518    -0.77500
C471        C  0.35422919  0.43009028  0.97525649     0.83300
N472        N  0.37264743  0.41277883  0.97479240    -0.77400
C473        C  0.38489379  0.40684964  0.00163010     0.83400
N474        N  0.37564522  0.41447368  0.52675664    -0.79100
O475        O  0.17340797  0.53176117  0.77517449    -0.84700
O476        O  0.25224936  0.60497040  0.79163598    -0.81800
C477        C  0.29187830  0.63214474  0.79448471     0.98700
O478        O  0.31557016  0.63276601  0.77565915    -0.81800
O479        O  0.30136483  0.56074900  0.79117495    -0.84400
C480        C  0.28188368  0.52187675  0.79437871     1.03300
O481        O  0.25296136  0.49517925  0.77567403    -0.77200
O482        O  0.18725773  0.49209570  0.79031705    -0.77400
C483        C  0.16731366  0.50485298  0.79368115     1.03200
O484        O  0.19873785  0.55306467  0.71181454    -0.84700
O485        O  0.27387459  0.62981477  0.72805939    -0.81800
C486        C  0.29858600  0.63310733  0.70859883     0.98800
O487        O  0.30939299  0.61139374  0.71161748    -0.81800
O488        O  0.30404233  0.54456889  0.72763375    -0.84400
C489        C  0.27756410  0.51701683  0.70832369     1.03200
O490        O  0.23894130  0.49897947  0.71118063    -0.77200
O491        O  0.16822343  0.48837422  0.72595103    -0.77400
C492        C  0.17033127  0.51367406  0.70808200     1.03200
Cr493      Cr  0.22616023  0.57805348  0.75169663     1.93700
Cr494      Cr  0.30351678  0.58508311  0.75150291     1.93200
Cr495      Cr  0.21431198  0.49770897  0.75077357     1.39100
O496        O  0.24793138  0.55351555  0.75140496    -1.22500
C497        C  0.34265540  0.51748746  0.85675301    -0.13700
C498        C  0.31256784  0.47503900  0.86625636     0.16700
C499        C  0.27236527  0.44816434  0.85224803     0.02900
C500        C  0.26314423  0.46441689  0.82916987    -0.12200
C501        C  0.29312577  0.50697875  0.81962393    -0.03300
C502        C  0.33326740  0.53375754  0.83386652     0.02200
C503        C  0.32210436  0.46064734  0.89304422     0.09000
N504        N  0.24077222  0.40434231  0.86101748     0.65400
H505        H  0.23225184  0.44346528  0.81851815     0.18300
N506        N  0.36494865  0.57744757  0.82539120     0.75900
H507        H  0.37325395  0.53847034  0.86784369     0.09800
C508        C  0.35629039  0.46131307  0.89279721     0.03500
C509        C  0.36536625  0.44973509  0.91953195    -0.05200
C510        C  0.34092325  0.43746380  0.94653275    -0.23600
C511        C  0.30625211  0.43622302  0.94644393     0.12700
C512        C  0.29759367  0.44820560  0.91989943    -0.12800
N513        N  0.38206293  0.47380976  0.86571292     0.64400
H514        H  0.39215151  0.45111824  0.91936854     0.12300
N515        N  0.27922888  0.42250372  0.97295342     0.61100
H516        H  0.27143307  0.44782166  0.92020849     0.08400
O517        O  0.39770432  0.58995406  0.81088418    -0.40400
O518        O  0.36387103  0.60435592  0.83708259    -0.39600
O519        O  0.20222246  0.38701353  0.86267789    -0.39600
O520        O  0.25080070  0.38200854  0.86486963    -0.37300
O521        O  0.26096167  0.38663651  0.98489142    -0.38200
O522        O  0.27021401  0.44427472  0.98254141    -0.34300
O523        O  0.42193029  0.49921968  0.86777859    -0.35700
O524        O  0.36505960  0.45757755  0.83995959    -0.40000
C525        C  0.32948775  0.43756846  0.60907248    -0.13700
C526        C  0.33094789  0.47190716  0.60660717     0.16700
C527        C  0.34390619  0.49458447  0.57874945     0.02900
C528        C  0.35375573  0.48179492  0.55342130    -0.12200
C529        C  0.35183168  0.44702147  0.55545595    -0.03300
C530        C  0.34041739  0.42527934  0.58388238     0.02200
C531        C  0.31684223  0.48262460  0.63273891     0.09000
N532        N  0.34520539  0.52941629  0.57549723     0.65400
H533        H  0.36255224  0.49899061  0.53187950     0.18300
N534        N  0.33760390  0.38949059  0.58715592     0.75900
H535        H  0.31946561  0.42006198  0.63057485     0.09800
C536        C  0.27348813  0.45754697  0.64025402     0.03500
C537        C  0.26147707  0.46892353  0.66531095    -0.05200
C538        C  0.29186746  0.50527378  0.68276522    -0.23600
C539        C  0.33532733  0.53007115  0.67502013     0.12700
C540        C  0.34729157  0.51846675  0.65023818    -0.12800
N541        N  0.24136903  0.42111039  0.62230989     0.64400
H542        H  0.22807307  0.44959499  0.67075943     0.12300
N543        N  0.36778716  0.56759573  0.69161731     0.61100
H544        H  0.38062269  0.53769653  0.64449374     0.08400
O545        O  0.30211441  0.35338501  0.59264003    -0.40400
O546        O  0.37774200  0.40107122  0.09177243    -0.39600
O547        O  0.37720334  0.56577495  0.58448377    -0.39600
O548        O  0.31687211  0.52495806  0.56037965    -0.37300
O549        O  0.38569668  0.56557964  0.71383239    -0.38200
O550        O  0.38255562  0.60328556  0.68144217    -0.34300
O551        O  0.20998617  0.38751587  0.63551638    -0.35700
O552        O  0.24207105  0.42365578  0.59328343    -0.40000
C553        C  0.38130524  0.74877170  0.91579066    -0.13700
C554        C  0.36975774  0.75876063  0.88975458     0.16700
C555        C  0.37092857  0.79320530  0.89059744     0.02900
C556        C  0.38197623  0.81583365  0.91810139    -0.12200
C557        C  0.39194233  0.80485825  0.94473891    -0.03300
C558        C  0.39233489  0.77134633  0.94314924     0.02200
C559        C  0.35144539  0.72928336  0.86353182     0.09000
N560        N  0.36055745  0.80518222  0.86397000     0.65400
H561        H  0.38178538  0.84153074  0.91880125     0.18300
N562        N  0.40297863  0.75911876  0.96917533     0.75900
H563        H  0.38020158  0.72218953  0.91520317     0.09800
C564        C  0.37541120  0.72277928  0.84628559     0.03500
C565        C  0.35506624  0.69045966  0.82429843    -0.05200
C566        C  0.31127901  0.66462406  0.81898101    -0.23600
C567        C  0.28762000  0.67160746  0.83637741     0.12700
C568        C  0.30795095  0.70393664  0.85821263    -0.12800
N569        N  0.42030457  0.74898579  0.85056806     0.64400
H570        H  0.37381438  0.68586339  0.81106430     0.12300
N571        N  0.24293860  0.64606556  0.83250120     0.61100
H572        H  0.28937364  0.70841781  0.87187515     0.08400
O573        O  0.44098546  0.77582826  0.97321468    -0.40400
O574        O  0.34826776  0.71350121  0.48400708    -0.39600
O575        O  0.34254696  0.82011924  0.86712313    -0.39600
O576        O  0.37234043  0.80407903  0.83740588    -0.37300
O577        O  0.21767483  0.61032473  0.84561631    -0.38200
O578        O  0.22872862  0.66194378  0.82046271    -0.34300
O579        O  0.43754276  0.73311979  0.84898590    -0.35700
O580        O  0.44335393  0.78859153  0.85332401    -0.40000
C581        C  0.33831886  0.68525699  0.62968473    -0.13700
C582        C  0.35090608  0.72513401  0.63566062     0.16700
C583        C  0.34590745  0.73435564  0.66578237     0.02900
C584        C  0.32776991  0.70323863  0.68887226    -0.12200
C585        C  0.31580550  0.66369434  0.68294825    -0.03300
C586        C  0.32099347  0.65447773  0.65293855     0.02200
C587        C  0.36563825  0.75497667  0.60945088     0.09000
N588        N  0.35987601  0.77523736  0.67349063     0.65400
H589        H  0.32429026  0.71048204  0.71198605     0.18300
N590        N  0.30699827  0.61358352  0.64527581     0.75900
H591        H  0.34069372  0.67749910  0.60643245     0.09800
C592        C  0.39763423  0.76550191  0.58870116     0.03500
C593        C  0.40641871  0.78932464  0.56218553    -0.05200
C594        C  0.38505479  0.80401874  0.55635804    -0.23600
C595        C  0.35368634  0.79426523  0.57728606     0.12700
C596        C  0.34437855  0.76987638  0.60356798    -0.12800
N597        N  0.42158837  0.75259387  0.59427165     0.64400
H598        H  0.43054869  0.79695795  0.54608431     0.12300
N599        N  0.32900226  0.80617749  0.57121608     0.61100
H600        H  0.31890974  0.76076107  0.61881813     0.08400
O601        O  0.27109927  0.58022203  0.65427979    -0.40400
O602        O  0.32804125  0.61067467  0.62633321    -0.39600
O603        O  0.33997266  0.77835699  0.69349149    -0.39600
O604        O  0.39428471  0.80858239  0.66260203    -0.37300
O605        O  0.31292728  0.79985647  0.54500258    -0.38200
O606        O  0.31848896  0.81765908  0.59306768    -0.34300
O607        O  0.43374213  0.74332028  0.57199236    -0.35700
O608        O  0.43384030  0.75395926  0.62111896    -0.40000
C609        C  0.02113828  0.46582041  0.61309610    -0.13700
C610        C  0.04853615  0.45741342  0.61139524     0.16700
C611        C  0.04890799  0.43860549  0.58458354     0.02900
C612        C  0.02334213  0.43038892  0.55975671    -0.12200
C613        C  0.99875791  0.44234121  0.56020449    -0.03300
C614        C  0.99720697  0.45980640  0.58759220     0.02200
C615        C  0.07869512  0.47139471  0.63685374     0.09000
N616        N  0.07698672  0.43021476  0.58128936     0.65400
H617        H  0.02465149  0.41664733  0.53913746     0.18300
N618        N  0.97475541  0.47487307  0.58943182     0.75900
H619        H  0.02075311  0.48007503  0.63378659     0.09800
C620        C  0.10769533  0.51426749  0.64592449     0.03500
C621        C  0.13660303  0.52672049  0.66931129    -0.05200
C622        C  0.13840563  0.49776163  0.68356216    -0.23600
C623        C  0.10919468  0.45476466  0.67450020     0.12700
C624        C  0.07927465  0.44197150  0.65169649    -0.12800
N625        N  0.10917807  0.54586901  0.63104104     0.64400
H626        H  0.15849611  0.55976329  0.67589662     0.12300
N627        N  0.11021674  0.42394695  0.68734482     0.61100
H628        H  0.05710355  0.40902505  0.64485622     0.08400
O629        O  0.98003998  0.49914725  0.56869803    -0.40400
O630        O  0.95757779  0.47184885  0.61461581    -0.39600
O631        O  0.06384824  0.39598519  0.56932467    -0.39600
O632        O  0.11607126  0.45903595  0.58646219    -0.37300
O633        O  0.07728309  0.39074582  0.69974055    -0.38200
O634        O  0.14168120  0.42669953  0.68209353    -0.34300
O635        O  0.11306680  0.57352716  0.64690568    -0.35700
O636        O  0.11116734  0.54900948  0.60202156    -0.40000
C637        C  0.10977638  0.46077790  0.87075999    -0.13700
C638        C  0.07418512  0.45681111  0.86559850     0.16700
C639        C  0.06838749  0.46672456  0.83617733     0.02900
C640        C  0.09949992  0.48265370  0.81329074    -0.12200
C641        C  0.13556830  0.48758083  0.81868527    -0.03300
C642        C  0.14041865  0.47590558  0.84765193     0.02200
C643        C  0.04661323  0.44755453  0.89222444     0.09000
N644        N  0.03105505  0.46044018  0.82914497     0.65400
H645        H  0.09507405  0.49046625  0.79082535     0.18300
N646        N  0.17740058  0.48171637  0.85466371     0.75900
H647        H  0.11493549  0.45415327  0.89343822     0.09800
C648        C  0.02905934  0.41279580  0.91224508     0.03500
C649        C  0.00782117  0.40876037  0.93914045    -0.05200
C650        C  0.00258076  0.43782360  0.94597768    -0.23600
C651        C  0.01963812  0.47232532  0.92590824     0.12700
C652        C  0.04144177  0.47672649  0.89926790    -0.12800
N653        N  0.03185673  0.38110291  0.90536218     0.64400
H654        H  0.99435472  0.38214307  0.95452974     0.12300
N655        N  0.01733157  0.50434244  0.93303217     0.61100
H656        H  0.05610987  0.50419901  0.88455359     0.08400
O657        O  0.17356074  0.45226249  0.86746640    -0.40400
O658        O  0.21382007  0.51778934  0.85159805    -0.39600
O659        O  0.03325720  0.48516418  0.81070525    -0.39600
O660        O  0.99519420  0.42815289  0.83919796    -0.37300
O661        O  0.01167537  0.52131008  0.45081653    -0.38200
O662        O  0.01422404  0.52254402  0.91161091    -0.34300
O663        O  0.03661241  0.36419982  0.92679980    -0.35700
O664        O  0.02572227  0.36714139  0.87829244    -0.40000
C665        C  0.50207124  0.34486867  0.65854500    -0.13700
C666        C  0.47570252  0.31669140  0.63503277     0.16700
C667        C  0.45931874  0.27464797  0.63628760     0.02900
C668        C  0.46957877  0.26152894  0.66114169    -0.12200
C669        C  0.49691308  0.28989524  0.68454007    -0.03300
C670        C  0.51273522  0.33196819  0.68321725     0.02200
C671        C  0.46645478  0.33203516  0.60891038     0.09000
N672        N  0.43300238  0.24522548  0.61220659     0.65400
H673        H  0.45720091  0.22926623  0.66149052     0.18300
N674        N  0.53960426  0.36208774  0.70666238     0.75900
H675        H  0.51458341  0.37718417  0.65765697     0.09800
C676        C  0.43032380  0.32808145  0.60875895     0.03500
C677        C  0.42225654  0.34207494  0.58303185    -0.05200
C678        C  0.44937818  0.35921931  0.55715724    -0.23600
C679        C  0.48693198  0.36532919  0.55813479     0.12700
C680        C  0.49487206  0.35147802  0.58398111    -0.12800
N681        N  0.40097643  0.30875130  0.63411581     0.64400
H682        H  0.39335863  0.33708108  0.58251418     0.12300
N683        N  0.51743269  0.38589122  0.53329362     0.61100
H684        H  0.52332404  0.35567080  0.58464674     0.08400
O685        O  0.52357208  0.36216728  0.73139560    -0.40400
O686        O  0.57863596  0.39157911  0.70123050    -0.39600
O687        O  0.44575833  0.25433179  0.58454743    -0.39600
O688        O  0.39914188  0.20837270  0.61884614    -0.37300
O689        O  0.52752716  0.41864232  0.52066755    -0.38200
O690        O  0.53761470  0.37412248  0.52611352    -0.34300
O691        O  0.39384859  0.32952051  0.64889120    -0.35700
O692        O  0.37868311  0.26968159  0.63951697    -0.40000
C693        C  0.44172958  0.29713189  0.91957018    -0.13700
C694        C  0.45625674  0.32221775  0.89298033     0.16700
C695        C  0.45916982  0.35783318  0.89254215     0.02900
C696        C  0.44817558  0.36793765  0.91922395    -0.12200
C697        C  0.43448282  0.34327162  0.94614199    -0.03300
C698        C  0.43070903  0.30709295  0.94607880     0.02200
C699        C  0.47082082  0.31175869  0.86690638     0.09000
N700        N  0.47378590  0.38422773  0.86556639     0.65400
H701        H  0.45131597  0.39577851  0.91920767     0.18300
N702        N  0.41556938  0.28000964  0.97263264     0.75900
H703        H  0.43944138  0.26978509  0.91979299     0.09800
C704        C  0.51425246  0.33695703  0.85953453     0.03500
C705        C  0.52644659  0.32467858  0.83529936    -0.05200
C706        C  0.49637892  0.28752896  0.81836805    -0.23600
C707        C  0.45282027  0.26309745  0.82549896     0.12700
C708        C  0.44063931  0.27514049  0.84988241    -0.12800
N709        N  0.54635081  0.37425331  0.87687734     0.64400
H710        H  0.55992969  0.34398304  0.83017302     0.12300
N711        N  0.42046262  0.22601733  0.80840702     0.61100
H712        H  0.40726100  0.25594669  0.85544525     0.08400
O713        O  0.43427912  0.26723628  0.98128631    -0.40400
O714        O  0.38888456  0.26500995  0.48671955    -0.39600
O715        O  0.46215823  0.36795320  0.83908574    -0.39600
O716        O  0.49591708  0.42371611  0.86825360    -0.37300
O717        O  0.39611472  0.19047853  0.82186011    -0.38200
O718        O  0.41099827  0.22991250  0.78195238    -0.34300
O719        O  0.54438373  0.37372422  0.90594423    -0.35700
O720        O  0.57904882  0.40638721  0.86339313    -0.40000
C721        C  0.43210579  0.07808752  0.85095759    -0.13700
C722        C  0.45868248  0.07021295  0.85964066     0.16700
C723        C  0.49630610  0.08921180  0.84258889     0.02900
C724        C  0.50706077  0.11654894  0.81809250    -0.12200
C725        C  0.48209121  0.12688691  0.81075183    -0.03300
C726        C  0.44351365  0.10648874  0.82700099     0.02200
C727        C  0.44762768  0.04381388  0.88742415     0.09000
N728        N  0.52527599  0.08324894  0.85082739     0.65400
H729        H  0.53668788  0.13186932  0.80596882     0.18300
N730        N  0.41543426  0.11385383  0.81958500     0.75900
H731        H  0.40260042  0.06256230  0.86329047     0.09800
C732        C  0.43970258  0.05352700  0.91605430     0.03500
C733        C  0.43239212  0.02999865  0.94226444    -0.05200
C734        C  0.43449712  0.99776197  0.94100821    -0.23600
C735        C  0.44068482  0.98690576  0.91212341     0.12700
C736        C  0.44636631  0.00939442  0.88553393    -0.12800
N737        N  0.44097866  0.08849155  0.91960373     0.64400
H738        H  0.42700577  0.03831159  0.96355437     0.12300
N739        N  0.44365118  0.95488024  0.90934579     0.61100
H740        H  0.45160730  0.00126581  0.86379446     0.08400
O741        O  0.39789144  0.11824578  0.84090606    -0.40400
O742        O  0.40327150  0.10968216  0.79220434    -0.39600
O743        O  0.54265317  0.07788587  0.83006391    -0.39600
O744        O  0.53769676  0.08875843  0.87827380    -0.37300
O745        O  0.41558718  0.92126314  0.89491131    -0.38200
O746        O  0.47735427  0.96296204  0.91697697    -0.34300
O747        O  0.41343671  0.08436718  0.93607347    -0.35700
O748        O  0.47245726  0.12483118  0.90966469    -0.40000
C749        C  0.44598346  0.06218457  0.57603568    -0.13700
C750        C  0.46314683  0.05850213  0.60187134     0.16700
C751        C  0.46547244  0.02633870  0.60290987     0.02900
C752        C  0.45160603  0.99931447  0.57748673    -0.12200
C753        C  0.43578174  0.00394786  0.55098629    -0.03300
C754        C  0.43156271  0.03494257  0.55092197     0.02200
C755        C  0.47669490  0.08776974  0.62787588     0.09000
N756        N  0.48326998  0.02177123  0.62892074     0.65400
H757        H  0.45521638  0.97595565  0.57787932     0.18300
N758        N  0.41137842  0.03830897  0.52614523     0.75900
H759        H  0.44284950  0.08591539  0.57575704     0.09800
C760        C  0.51139154  0.13160802  0.62472253     0.03500
C761        C  0.52179152  0.15880150  0.64916552    -0.05200
C762        C  0.49800339  0.14318548  0.67670404    -0.23600
C763        C  0.46274312  0.09942267  0.67947500     0.12700
C764        C  0.45261774  0.07211245  0.65521409    -0.12800
N765        N  0.53664132  0.14879428  0.59705068     0.64400
H766        H  0.54895313  0.19231624  0.64675811     0.12300
N767        N  0.43773931  0.08205074  0.70710923     0.61100
H768        H  0.42552205  0.03857174  0.65755187     0.08400
O769        O  0.37483705  0.00599881  0.51767344    -0.40400
O770        O  0.43287460  0.07626993  0.01978543    -0.39600
O771        O  0.46824075  0.98540232  0.63758792    -0.39600
O772        O  0.51636654  0.05400628  0.64152016    -0.37300
O773        O  0.40609759  0.07951254  0.71005925    -0.38200
O774        O  0.44390720  0.06436161  0.72669125    -0.34300
O775        O  0.54632883  0.18148776  0.58468938    -0.35700
O776        O  0.55178359  0.13316274  0.58610924    -0.40000
C777        C  0.78744144  0.36477649  0.88752340    -0.13700
C778        C  0.75163856  0.36109227  0.88905743     0.16700
C779        C  0.74401985  0.37433540  0.91569394     0.02900
C780        C  0.77098911  0.38929461  0.94085539    -0.12200
C781        C  0.80580957  0.39103764  0.94034661    -0.03300
C782        C  0.81470234  0.37984132  0.91281086     0.02200
C783        C  0.72103877  0.34168522  0.86348635     0.09000
N784        N  0.70811747  0.37152423  0.91779809     0.65400
H785        H  0.76361524  0.39830801  0.96131680     0.18300
N786        N  0.84994558  0.38165044  0.91052906     0.75900
H787        H  0.79362529  0.35490787  0.86690498     0.09800
C788        C  0.72717252  0.36586910  0.83792986     0.03500
C789        C  0.69516451  0.34784764  0.81595538    -0.05200
C790        C  0.65710725  0.30546706  0.81864536    -0.23600
C791        C  0.65136404  0.28118811  0.84424014     0.12700
C792        C  0.68315243  0.29954058  0.86642780    -0.12800
N793        N  0.76547724  0.40894850  0.83432133     0.64400
H794        H  0.70048160  0.36697691  0.79640949     0.12300
N795        N  0.61279331  0.23850079  0.84877699     0.61100
H796        H  0.67793685  0.28104713  0.88641060     0.08400
O797        O  0.88537299  0.41510481  0.90102484    -0.40400
O798        O  0.84446456  0.34846148  0.91441847    -0.39600
O799        O  0.67338832  0.33835109  0.92843919    -0.39600
O800        O  0.71242390  0.40379778  0.91241514    -0.37300
O801        O  0.61010046  0.20823612  0.83949410    -0.38200
O802        O  0.58396260  0.23097195  0.86589674    -0.34300
O803        O  0.79956657  0.41724017  0.82719966    -0.35700
O804        O  0.76444430  0.43839728  0.83510206    -0.40000
C805        C  0.69683132  0.36656397  0.63852418    -0.13700
C806        C  0.71758838  0.35103170  0.63322714     0.16700
C807        C  0.71207084  0.32209861  0.65432073     0.02900
C808        C  0.68517554  0.30860536  0.67980643    -0.12200
C809        C  0.66268068  0.32250110  0.68448181    -0.03300
C810        C  0.66954614  0.35273179  0.66385211     0.02200
C811        C  0.74521571  0.36572913  0.60568795     0.09000
N812        N  0.73190198  0.30461174  0.64948694     0.65400
H813        H  0.68039896  0.28544184  0.69525196     0.18300
N814        N  0.64941388  0.36989740  0.66819430     0.75900
H815        H  0.70195449  0.38971509  0.62282638     0.09800
C816        C  0.72971295  0.36129419  0.57583485     0.03500
C817        C  0.75701438  0.37584756  0.55044349    -0.05200
C818        C  0.79941069  0.39379922  0.55390277    -0.23600
C819        C  0.81486006  0.39895037  0.58398711     0.12700
C820        C  0.78779199  0.38505252  0.60944659    -0.12800
N821        N  0.68602895  0.34057324  0.57076338     0.64400
H822        H  0.74412538  0.37121672  0.52771370     0.12300
N823        N  0.85801957  0.41884006  0.58926956     0.61100
H824        H  0.80014228  0.38949444  0.63238827     0.08400
O825        O  0.62829187  0.36824197  0.64663861    -0.40400
O826        O  0.65810011  0.39230558  0.69152378    -0.39600
O827        O  0.74828920  0.30072756  0.67182961    -0.39600
O828        O  0.72935878  0.28913727  0.62369286    -0.37300
O829        O  0.88657559  0.45853947  0.58664273    -0.38200
O830        O  0.86693055  0.39758511  0.60016272    -0.34300
O831        O  0.67644499  0.35529764  0.55117465    -0.35700
O832        O  0.65687369  0.30542447  0.58357820    -0.40000
loop_ 
_geom_bond_atom_site_label_1 
_geom_bond_atom_site_label_2 
_geom_bond_distance 
_geom_bond_site_symmetry_2 
_ccdc_geom_bond_type 
C1            N2   1.353   1_554  A
C1            N6   1.359       .  A
C1          C402   1.480       .  S
N2          C419   1.354       .  A
C3            N4   1.359       .  A
C3          N418   1.354       .  A
C3          C365   1.486       .  S
N4            C5   1.362       .  A
C5          N422   1.359       .  A
C5           C43   1.471       .  S
N6          C421   1.361   1_554  A
C7            N8   1.353   1_554  A
C7           N12   1.360       .  A
C7          C337   1.485   1_565  S
N8          C425   1.353       .  A
C9           N10   1.357       .  A
C9          N424   1.354       .  A
C9          C318   1.484       .  S
N10          C11   1.362       .  A
C11         N428   1.363       .  A
C11          C51   1.471       .  S
N12         C427   1.362   1_554  A
C13          N14   1.354       .  A
C13          N18   1.360       .  A
C13         C281   1.481       .  S
N14         C431   1.353       .  A
C15          N16   1.358       .  A
C15         N430   1.353       .  A
C15         C262   1.480       .  S
N16         C433   1.362       .  A
C17          N18   1.362       .  A
C17         N432   1.363       .  A
C17          C57   1.471       .  S
O19         Cr37   1.971       .  S
O19          C27   1.260       .  A
O20         Cr37   2.003       .  S
O20          C21   1.265       .  A
C21         C309   1.479       .  S
C21          O22   1.260       .  A
O22         Cr38   1.976       .  S
O23         Cr38   2.018       .  S
O23          C24   1.268       .  A
C24         C290   1.484       .  S
C24          O25   1.260       .  A
O25         Cr39   1.964       .  S
O26         Cr39   2.012       .  S
O26          C27   1.267       .  A
C27         C374   1.483       .  S
O28         Cr37   2.004       .  S
O28          C36   1.265       .  A
O29         Cr37   1.967       .  S
O29          C30   1.259       .  A
C30         C346   1.474       .  S
C30          O31   1.268       .  A
O31         Cr38   2.016       .  S
O32         Cr38   1.976       .  S
O32          C33   1.260       .  A
C33         C253   1.485       .  S
C33          O34   1.265       .  A
O34         Cr39   2.008       .  S
O35         Cr39   1.974       .  S
O35          C36   1.259       .  A
C36         C393   1.484       .  S
Cr37         O40   1.763       .  S
Cr38         O40   1.769       .  S
Cr39         O40   1.765       .  S
C41          N42   1.355       .  A
C41          N46   1.352       .  A
C41         C234   1.470   1_655  S
N42          C43   1.359       .  A
C43         N460   1.365       .  A
N44          C45   1.361       .  A
N44         C459   1.363   1_554  A
C45         N462   1.357       .  A
C45         C197   1.491       .  S
N46         C461   1.356       .  A
C47          N48   1.354       .  A
C47          N52   1.360       .  A
C47         C141   1.490       .  S
N48         C465   1.352       .  A
C49          N50   1.359       .  A
C49         N464   1.355       .  A
C49         C178   1.473       .  S
N50         C467   1.359       .  A
C51          N52   1.361       .  A
C51         N466   1.361       .  A
C53          N58   1.356       .  A
C53         N470   1.354       .  A
C53         C113   1.480       .  S
N54          C55   1.353       .  A
N54         C469   1.352       .  A
C55          N56   1.362       .  A
C55          C94   1.483       .  S
N56          C57   1.365       .  A
C57         N474   1.361       .  A
N58         C473   1.360       .  A
O59         Cr77   2.001       .  S
O59          C67   1.263       .  A
O60         Cr77   1.965       .  S
O60          C61   1.257       .  A
C61         C150   1.483       .  S
C61          O62   1.268       .  A
O62         Cr78   2.012       .  S
O63         Cr78   1.975       .  S
O63          C64   1.260       .  A
C64          C85   1.487       .  S
C64          O65   1.269       .  A
O65         Cr79   2.016       .  S
O66         Cr79   1.978       .  S
O66          C67   1.260       .  A
C67         C225   1.473       .  S
O68         Cr77   1.960       .  S
O68          C76   1.259       .  A
O69         Cr77   2.006       .  S
O69          C70   1.264       .  A
C70         C169   1.468       .  S
C70          O71   1.259       .  A
O71         Cr78   1.974       .  S
O72         Cr78   2.001       .  S
O72          C73   1.264       .  A
C73         C122   1.480       .  S
C73          O74   1.262       .  A
O74         Cr79   1.975       .  S
O75         Cr79   2.026       .  S
O75          C76   1.270       .  A
C76         C206   1.490       .  S
Cr77         O80   1.763       .  S
Cr78         O80   1.763       .  S
Cr79         O80   1.766       .  S
C81          C82   1.402       .  A
C81          C86   1.401       .  A
C81          H91   1.084       .  S
C82          C87   1.481       .  S
C82          C83   1.412       .  A
C83          C84   1.404       .  A
C83          N88   1.438       .  S
C84          C85   1.408       .  A
C84          H89   1.083       .  S
C85          C86   1.415       .  A
C86          N90   1.432       .  S
C87          C92   1.416       .  A
C87          C96   1.398       .  A
N88         O103   1.262       .  A
N88         O104   1.262       .  A
N90         O101   1.262       .  A
N90         O102   1.262       .  A
C92          C93   1.409       .  A
C92          N97   1.438       .  S
C93          C94   1.405       .  A
C93          H98   1.083       .  S
C94          C95   1.417       .  A
C95          C96   1.397       .  A
C95          N99   1.436       .  S
C96         H100   1.084       .  S
N97         O107   1.263       .  A
N97         O108   1.263       .  A
N99         O105   1.263       .  A
N99         O106   1.263       .  A
C109        C110   1.403       .  A
C109        C114   1.403       .  A
C109        H119   1.083       .  S
C110        C115   1.477       .  S
C110        C111   1.407       .  A
C111        C112   1.395       .  A
C111        N116   1.433       .  S
C112        C113   1.406       .  A
C112        H117   1.084       .  S
C113        C114   1.415       .  A
C114        N118   1.431       .  S
C115        C120   1.410       .  A
C115        C124   1.400       .  A
N116        O131   1.262       .  A
N116        O132   1.262       .  A
N118        O129   1.262       .  A
N118        O546   1.262       .  A
C120        C121   1.402       .  A
C120        N125   1.434       .  S
C121        C122   1.406       .  A
C121        H126   1.083       .  S
C122        C123   1.414       .  A
C123        C124   1.396       .  A
C123        N127   1.430       .  S
C124        H128   1.084       .  S
N125        O135   1.262       .  A
N125        O136   1.262       .  A
N127        O133   1.262       .  A
N127        O134   1.262       .  A
O130        N534   1.262       .  A
C137        C138   1.397       .  A
C137        C142   1.394       .  A
C137        H147   1.083       .  S
C138        C143   1.472       .  S
C138        C139   1.410       .  A
C139        C140   1.405       .  A
C139        N144   1.438       .  S
C140        C141   1.410       .  A
C140        H145   1.079       .  S
C141        C142   1.418       .  A
C142        N146   1.430       .  S
C143        C148   1.408       .  A
C143        C152   1.399       .  A
N144        O159   1.263       .  A
N144        O160   1.262       .  A
N146        O157   1.262       .  A
N146        O574   1.262       .  A
C148        C149   1.401       .  A
C148        N153   1.436       .  S
C149        C150   1.409       .  A
C149        H154   1.083       .  S
C150        C151   1.418       .  A
C151        C152   1.398       .  A
C151        N155   1.434       .  S
C152        H156   1.084       .  S
N153        O163   1.262       .  A
N153        O164   1.263       .  A
N155        O161   1.262       .  A
N155        O162   1.262       .  A
O158        N562   1.262       .  A
C165        C166   1.406       .  A
C165        C170   1.401       .  A
C165        H175   1.083       .  S
C166        C171   1.485       .  S
C166        C167   1.415       .  A
C167        C168   1.403       .  A
C167        N172   1.439       .  S
C168        C169   1.402       .  A
C168        H173   1.084       .  S
C169        C170   1.411       .  A
C170        N174   1.440       .  S
C171        C176   1.414       .  A
C171        C180   1.405       .  A
N172        O187   1.263       .  A
N172        O188   1.263       .  A
N174        O185   1.263       .  A
N174        O186   1.263       .  A
C176        C177   1.402       .  A
C176        N181   1.439       .  S
C177        C178   1.403       .  A
C177        H182   1.084       .  S
C178        C179   1.412       .  A
C179        C180   1.401       .  A
C179        N183   1.436       .  S
C180        H184   1.083       .  S
N181        O191   1.263       .  A
N181        O192   1.263       .  A
N183        O189   1.263       .  A
N183        O190   1.262       .  A
C193        C194   1.402       .  A
C193        C198   1.404   1_455  A
C193        H203   1.084       .  S
C194        C199   1.480       .  S
C194        C195   1.407       .  A
C195        C196   1.400       .  A
C195        N200   1.433       .  S
C196        C197   1.410   1_455  A
C196        H201   1.083       .  S
C197        C198   1.417       .  A
C198        N202   1.431       .  S
C199        C204   1.409       .  A
C199        C208   1.403       .  A
N200        O215   1.262       .  A
N200        O216   1.262       .  A
N202        O213   1.262       .  A
N202        O214   1.262       .  A
C204        C205   1.398       .  A
C204        N209   1.436       .  S
C205        C206   1.409       .  A
C205        H210   1.083       .  S
C206        C207   1.416       .  A
C207        C208   1.405       .  A
C207        N211   1.430       .  S
C208        H212   1.084       .  S
N209        O219   1.262       .  A
N209        O220   1.263       .  A
N211        O217   1.262       .  A
N211        O218   1.262       .  A
C221        C222   1.407       .  A
C221        C226   1.399       .  A
C221        H231   1.083       .  S
C222        C227   1.488       .  S
C222        C223   1.416       .  A
C223        C224   1.403       .  A
C223        N228   1.439       .  S
C224        C225   1.403       .  A
C224        H229   1.084       .  S
C225        C226   1.409       .  A
C226        N230   1.433       .  S
C227        C232   1.415       .  A
C227        C236   1.407       .  A
N228        O243   1.263       .  A
N228        O244   1.263   1_455  A
N230        O241   1.262       .  A
N230        O242   1.262       .  A
C232        C233   1.401       .  A
C232        N237   1.438       .  S
C233        C234   1.402       .  A
C233        H238   1.084       .  S
C234        C235   1.410       .  A
C235        C236   1.402       .  A
C235        N239   1.437       .  S
C236        H240   1.083       .  S
N237        O247   1.263       .  A
N237        O248   1.263       .  A
N239        O246   1.263   1_455  A
N239        O661   1.263       .  A
O245        N655   1.263       .  A
C249        C250   1.400       .  A
C249        C254   1.401       .  A
C249        H259   1.084       .  S
C250        C255   1.479       .  S
C250        C251   1.412       .  A
C251        C252   1.402       .  A
C251        N256   1.437       .  S
C252        C253   1.405       .  A
C252        H257   1.083       .  S
C253        C254   1.415       .  A
C254        N258   1.429       .  S
C255        C260   1.415       .  A
C255        C264   1.399       .  A
N256        O271   1.262       .  A
N256        O272   1.263       .  A
N258        O269   1.262       .  A
N258        O270   1.262       .  A
C260        C261   1.407       .  A
C260        N265   1.439       .  S
C261        C262   1.405       .  A
C261        H266   1.083       .  S
C262        C263   1.416       .  A
C263        C264   1.398       .  A
C263        N267   1.438       .  S
C264        H268   1.084       .  S
N265        O275   1.263       .  A
N265        O276   1.263       .  A
N267        O273   1.263       .  A
N267        O274   1.263       .  A
C277        C278   1.398       .  A
C277        C282   1.398       .  A
C277        H287   1.084       .  S
C278        C283   1.476       .  S
C278        C279   1.408       .  A
C279        C280   1.404       .  A
C279        N284   1.431       .  S
C280        C281   1.406       .  A
C280        H285   1.083       .  S
C281        C282   1.418       .  A
C282        N286   1.437       .  S
C283        C288   1.406       .  A
C283        C292   1.401       .  A
N284        O299   1.262       .  A
N284        O300   1.262       .  A
N286        O297   1.263       .  A
N286        O714   1.263       .  A
C288        C289   1.397       .  A
C288        N293   1.431       .  S
C289        C290   1.407       .  A
C289        H294   1.084       .  S
C290        C291   1.417       .  A
C291        C292   1.403       .  A
C291        N295   1.431       .  S
C292        H296   1.084       .  S
N293        O303   1.262       .  A
N293        O304   1.262       .  A
N295        O301   1.262       .  A
N295        O302   1.262       .  A
O298        N702   1.262       .  A
C305        C306   1.406       .  A
C305        C310   1.400       .  A
C305        H315   1.083       .  S
C306        C311   1.487       .  S
C306        C307   1.416       .  A
C307        C308   1.401       .  A
C307        N312   1.437       .  S
C308        C309   1.403       .  A
C308        H313   1.083       .  S
C309        C310   1.411       .  A
C310        N314   1.430       .  S
C311        C316   1.413       .  A
C311        C320   1.407       .  A
N312        O327   1.263       .  A
N312        O328   1.263       .  A
N314        O325   1.262       .  A
N314        O326   1.262       .  A
C316        C317   1.398       .  A
C316        N321   1.436       .  S
C317        C318   1.405   1_545  A
C317        H322   1.080       .  S
C318        C319   1.411       .  A
C319        C320   1.403   1_565  A
C319        N323   1.429       .  S
C320        H324   1.082       .  S
N321        O331   1.263       .  A
N321        O332   1.262       .  A
N323        O329   1.261       .  A
N323        O330   1.262       .  A
C333        C334   1.398       .  A
C333        C338   1.397       .  A
C333        H343   1.084       .  S
C334        C339   1.479       .  S
C334        C335   1.413       .  A
C335        C336   1.407       .  A
C335        N340   1.438       .  S
C336        C337   1.406       .  A
C336        H341   1.083   1_545  S
C337        C338   1.419       .  A
C338        N342   1.436       .  S
C339        C344   1.414       .  A
C339        C348   1.402       .  A
N340        O355   1.263   1_545  A
N340        O356   1.263       .  A
N342        O353   1.263       .  A
N342        O770   1.263       .  A
C344        C345   1.401       .  A
C344        N349   1.437       .  S
C345        C346   1.402       .  A
C345        H350   1.084       .  S
C346        C347   1.410       .  A
C347        C348   1.400       .  A
C347        N351   1.429       .  S
C348        H352   1.084       .  S
N349        O359   1.263       .  A
N349        O360   1.263       .  A
N351        O357   1.262       .  A
N351        O358   1.262       .  A
O354        N758   1.263       .  A
C361        C362   1.401       .  A
C361        C366   1.403       .  A
C361        H371   1.084       .  S
C362        C367   1.475       .  S
C362        C363   1.407       .  A
C363        C364   1.398       .  A
C363        N368   1.434       .  S
C364        C365   1.408       .  A
C364        H369   1.084       .  S
C365        C366   1.415       .  A
C366        N370   1.429       .  S
C367        C372   1.404       .  A
C367        C376   1.400       .  A
N368        O383   1.262       .  A
N368        O384   1.262       .  A
N370        O381   1.262       .  A
N370        O382   1.262       .  A
C372        C373   1.400       .  A
C372        N377   1.429       .  S
C373        C374   1.408       .  A
C373        H378   1.083       .  S
C374        C375   1.416       .  A
C375        C376   1.401       .  A
C375        N379   1.433       .  S
C376        H380   1.084       .  S
N377        O387   1.262       .  A
N377        O388   1.262       .  A
N379        O385   1.262       .  A
N379        O386   1.263       .  A
C389        C390   1.402       .  A
C389        C394   1.400       .  A
C389        H399   1.084       .  S
C390        C395   1.477       .  S
C390        C391   1.407       .  A
C391        C392   1.399       .  A
C391        N396   1.434       .  S
C392        C393   1.409       .  A
C392        H397   1.083       .  S
C393        C394   1.416       .  A
C394        N398   1.431       .  S
C395        C400   1.408       .  A
C395        C404   1.403       .  A
N396        O411   1.262       .  A
N396        O412   1.263       .  A
N398        O409   1.262       .  A
N398        O410   1.262       .  A
C400        C401   1.396       .  A
C400        N405   1.437       .  S
C401        C402   1.407       .  A
C401        H406   1.084       .  S
C402        C403   1.417       .  A
C403        C404   1.407       .  A
C403        N407   1.440       .  S
C404        H408   1.083       .  S
N405        O415   1.262       .  A
N405        O416   1.263       .  A
N407        O413   1.263       .  A
N407        O414   1.263       .  A
C417        N418   1.355       .  A
C417        N422   1.359       .  A
C417        C818   1.489       .  S
C419        N420   1.361       .  A
C419        C781   1.492       .  S
N420        C421   1.364       .  A
C421        C459   1.473       .  S
C423        N424   1.354       .  A
C423        N428   1.361       .  A
C423        C753   1.489   1_565  S
C425        N426   1.358       .  A
C425        C734   1.488       .  S
N426        C427   1.362       .  A
C427        C467   1.469   1_556  S
C429        N430   1.353   1_556  A
C429        N434   1.359       .  A
C429        C697   1.478       .  S
C431        N432   1.358       .  A
C431        C678   1.479       .  S
C433        N434   1.362   1_554  A
C433        C473   1.470       .  S
O435       Cr453   1.976       .  S
O435        C443   1.261       .  A
O436       Cr453   2.002       .  S
O436        C437   1.264       .  A
C437        C725   1.484       .  S
C437        O438   1.261       .  A
O438       Cr454   1.980       .  S
O439       Cr454   2.014       .  S
O439        C440   1.268       .  A
C440        C706   1.488       .  S
C440        O441   1.260       .  A
O441       Cr455   1.966       .  S
O442       Cr455   2.016       .  S
O442        C443   1.269       .  A
C443        C790   1.486       .  S
O444       Cr453   2.001       .  S
O444        C452   1.264       .  A
O445       Cr453   1.972       .  S
O445        C446   1.260       .  A
C446        C762   1.480       .  S
C446        O447   1.269       .  A
O447       Cr454   2.019       .  S
O448       Cr454   1.978       .  S
O448        C449   1.262       .  A
C449        C669   1.490       .  S
C449        O450   1.265       .  A
O450       Cr455   2.006       .  S
O451       Cr455   1.971       .  S
O451        C452   1.257       .  A
C452        C809   1.483       .  S
Cr453       O456   1.764       .  S
Cr454       O456   1.767       .  S
Cr455       O456   1.765       .  S
C457        N458   1.357       .  A
C457        N462   1.353   1_556  A
C457        C650   1.469   1_655  S
N458        C459   1.359       .  A
N460        C461   1.363       .  A
C461        C613   1.487       .  S
C463        N464   1.355   1_556  A
C463        N468   1.358       .  A
C463        C557   1.484       .  S
C465        N466   1.359       .  A
C465        C594   1.472       .  S
C467        N468   1.358   1_554  A
C469        N474   1.356       .  A
C469        C529   1.479       .  S
N470        C471   1.354   1_554  A
C471        N472   1.361       .  A
C471        C510   1.482       .  S
N472        C473   1.363   1_556  A
O475       Cr493   2.003       .  S
O475        C483   1.264       .  A
O476       Cr493   1.969       .  S
O476        C477   1.259       .  A
C477        C566   1.483       .  S
C477        O478   1.266       .  A
O478       Cr494   2.005       .  S
O479       Cr494   1.972       .  S
O479        C480   1.260       .  A
C480        C501   1.485       .  S
C480        O481   1.269       .  A
O481       Cr495   2.012       .  S
O482       Cr495   1.975       .  S
O482        C483   1.259       .  A
C483        C641   1.476       .  S
O484       Cr493   1.964       .  S
O484        C492   1.259       .  A
O485       Cr493   2.005       .  S
O485        C486   1.265       .  A
C486        C585   1.474       .  S
C486        O487   1.260       .  A
O487       Cr494   1.977       .  S
O488       Cr494   1.999       .  S
O488        C489   1.263       .  A
C489        C538   1.485       .  S
C489        O490   1.261       .  A
O490       Cr495   1.979       .  S
O491       Cr495   2.018       .  S
O491        C492   1.268       .  A
C492        C622   1.488       .  S
Cr493       O496   1.764       .  S
Cr494       O496   1.766       .  S
Cr495       O496   1.766       .  S
C497        C498   1.402       .  A
C497        C502   1.401       .  A
C497        H507   1.084       .  S
C498        C503   1.482       .  S
C498        C499   1.412       .  A
C499        C500   1.402       .  A
C499        N504   1.437       .  S
C500        C501   1.406       .  A
C500        H505   1.083       .  S
C501        C502   1.415       .  A
C502        N506   1.430       .  S
C503        C508   1.412       .  A
C503        C512   1.400       .  A
N504        O519   1.262       .  A
N504        O520   1.263       .  A
N506        O517   1.262       .  A
N506        O518   1.262       .  A
C508        C509   1.405       .  A
C508        N513   1.434       .  S
C509        C510   1.405       .  A
C509        H514   1.083       .  S
C510        C511   1.417       .  A
C511        C512   1.398       .  A
C511        N515   1.435       .  S
C512        H516   1.084       .  S
N513        O523   1.262       .  A
N513        O524   1.262       .  A
N515        O521   1.262       .  A
N515        O522   1.262       .  A
C525        C526   1.402       .  A
C525        C530   1.403       .  A
C525        H535   1.084       .  S
C526        C531   1.473       .  S
C526        C527   1.404       .  A
C527        C528   1.395       .  A
C527        N532   1.430       .  S
C528        C529   1.407       .  A
C528        H533   1.084       .  S
C529        C530   1.414       .  A
C530        N534   1.430       .  S
C531        C536   1.410       .  A
C531        C540   1.398       .  A
N532        O547   1.262       .  A
N532        O548   1.262       .  A
N534        O545   1.262       .  A
C536        C537   1.402       .  A
C536        N541   1.436       .  S
C537        C538   1.407       .  A
C537        H542   1.083       .  S
C538        C539   1.417       .  A
C539        C540   1.397       .  A
C539        N543   1.429       .  S
C540        H544   1.084       .  S
N541        O551   1.262       .  A
N541        O552   1.263       .  A
N543        O549   1.262       .  A
N543        O550   1.262       .  A
C553        C554   1.400       .  A
C553        C558   1.396       .  A
C553        H563   1.083       .  S
C554        C559   1.475       .  S
C554        C555   1.410       .  A
C555        C556   1.403       .  A
C555        N560   1.438       .  S
C556        C557   1.407       .  A
C556        H561   1.081       .  S
C557        C558   1.415       .  A
C558        N562   1.430       .  S
C559        C564   1.409       .  A
C559        C568   1.400       .  A
N560        O575   1.263       .  A
N560        O576   1.263       .  A
N562        O573   1.262       .  A
C564        C565   1.401       .  A
C564        N569   1.437       .  S
C565        C566   1.408       .  A
C565        H570   1.083       .  S
C566        C567   1.415       .  A
C567        C568   1.397       .  A
C567        N571   1.430       .  S
C568        H572   1.084       .  S
N569        O579   1.262       .  A
N569        O580   1.263       .  A
N571        O577   1.262       .  A
N571        O578   1.262       .  A
C581        C582   1.406       .  A
C581        C586   1.402       .  A
C581        H591   1.083       .  S
C582        C587   1.487       .  S
C582        C583   1.415       .  A
C583        C584   1.403       .  A
C583        N588   1.439       .  S
C584        C585   1.403       .  A
C584        H589   1.084       .  S
C585        C586   1.413       .  A
C586        N590   1.438       .  S
C587        C592   1.415       .  A
C587        C596   1.406       .  A
N588        O603   1.263       .  A
N588        O604   1.263       .  A
N590        O601   1.263       .  A
N590        O602   1.263       .  A
C592        C593   1.402       .  A
C592        N597   1.439       .  S
C593        C594   1.402       .  A
C593        H598   1.084       .  S
C594        C595   1.411       .  A
C595        C596   1.402       .  A
C595        N599   1.437       .  S
C596        H600   1.083       .  S
N597        O607   1.263       .  A
N597        O608   1.263       .  A
N599        O605   1.263       .  A
N599        O606   1.262       .  A
C609        C610   1.404       .  A
C609        C614   1.406   1_455  A
C609        H619   1.083       .  S
C610        C615   1.486       .  S
C610        C611   1.410       .  A
C611        C612   1.399       .  A
C611        N616   1.436       .  S
C612        C613   1.408   1_455  A
C612        H617   1.084       .  S
C613        C614   1.418       .  A
C614        N618   1.436       .  S
C615        C620   1.412       .  A
C615        C624   1.404       .  A
N616        O631   1.262       .  A
N616        O632   1.263       .  A
N618        O629   1.262       .  A
N618        O630   1.263       .  A
C620        C621   1.398       .  A
C620        N625   1.436       .  S
C621        C622   1.407       .  A
C621        H626   1.083       .  S
C622        C623   1.416       .  A
C623        C624   1.404       .  A
C623        N627   1.432       .  S
C624        H628   1.084       .  S
N625        O635   1.262       .  A
N625        O636   1.262       .  A
N627        O633   1.262       .  A
N627        O634   1.262       .  A
C637        C638   1.405       .  A
C637        C642   1.401       .  A
C637        H647   1.084       .  S
C638        C643   1.486       .  S
C638        C639   1.414       .  A
C639        C640   1.402       .  A
C639        N644   1.439       .  S
C640        C641   1.404       .  A
C640        H645   1.084       .  S
C641        C642   1.412       .  A
C642        N646   1.435       .  S
C643        C648   1.414       .  A
C643        C652   1.406       .  A
N644        O659   1.263       .  A
N644        O660   1.263   1_455  A
N646        O657   1.262       .  A
N646        O658   1.263       .  A
C648        C649   1.402       .  A
C648        N653   1.437       .  S
C649        C650   1.402       .  A
C649        H654   1.084   1_455  S
C650        C651   1.411       .  A
C651        C652   1.402       .  A
C651        N655   1.439       .  S
C652        H656   1.084       .  S
N653        O663   1.263       .  A
N653        O664   1.263       .  A
N655        O662   1.263       .  A
C665        C666   1.399       .  A
C665        C670   1.401       .  A
C665        H675   1.084       .  S
C666        C671   1.477       .  S
C666        C667   1.409       .  A
C667        C668   1.402       .  A
C667        N672   1.434       .  S
C668        C669   1.408       .  A
C668        H673   1.083       .  S
C669        C670   1.418       .  A
C670        N674   1.430       .  S
C671        C676   1.408       .  A
C671        C680   1.398       .  A
N672        O687   1.262       .  A
N672        O688   1.262       .  A
N674        O685   1.262       .  A
N674        O686   1.262       .  A
C676        C677   1.403       .  A
C676        N681   1.431       .  S
C677        C678   1.405       .  A
C677        H682   1.084       .  S
C678        C679   1.417       .  A
C679        C680   1.401       .  A
C679        N683   1.438       .  S
C680        H684   1.084       .  S
N681        O691   1.262       .  A
N681        O692   1.262       .  A
N683        O689   1.263       .  A
N683        O690   1.263       .  A
C693        C694   1.398       .  A
C693        C698   1.397       .  A
C693        H703   1.084       .  S
C694        C699   1.477       .  S
C694        C695   1.414       .  A
C695        C696   1.406       .  A
C695        N700   1.438       .  S
C696        C697   1.404       .  A
C696        H701   1.084       .  S
C697        C698   1.416       .  A
C698        N702   1.435       .  S
C699        C704   1.411       .  A
C699        C708   1.400       .  A
N700        O715   1.262       .  A
N700        O716   1.263       .  A
N702        O713   1.263       .  A
C704        C705   1.402       .  A
C704        N709   1.438       .  S
C705        C706   1.409       .  A
C705        H710   1.083       .  S
C706        C707   1.416       .  A
C707        C708   1.400       .  A
C707        N711   1.431       .  S
C708        H712   1.084       .  S
N709        O719   1.263       .  A
N709        O720   1.263       .  A
N711        O717   1.262       .  A
N711        O718   1.262       .  A
C721        C722   1.405       .  A
C721        C726   1.403       .  A
C721        H731   1.081       .  S
C722        C727   1.486       .  S
C722        C723   1.412       .  A
C723        C724   1.400       .  A
C723        N728   1.436       .  S
C724        C725   1.407       .  A
C724        H729   1.082       .  S
C725        C726   1.415       .  A
C726        N730   1.435       .  S
C727        C732   1.410       .  A
C727        C736   1.409       .  A
N728        O743   1.262       .  A
N728        O744   1.262       .  A
N730        O741   1.263       .  A
N730        O742   1.262       .  A
C732        C733   1.399       .  A
C732        N737   1.437       .  S
C733        C734   1.410   1_545  A
C733        H738   1.060       .  S
C734        C735   1.412       .  A
C735        C736   1.406   1_565  A
C735        N739   1.430       .  S
C736        H740   1.071       .  S
N737        O747   1.262       .  A
N737        O748   1.263       .  A
N739        O745   1.262       .  A
N739        O746   1.262       .  A
C749        C750   1.398       .  A
C749        C754   1.399       .  A
C749        H759   1.084       .  S
C750        C755   1.480       .  S
C750        C751   1.413       .  A
C751        C752   1.407   1_545  A
C751        N756   1.437       .  S
C752        C753   1.407   1_565  A
C752        H757   1.083       .  S
C753        C754   1.419       .  A
C754        N758   1.435       .  S
C755        C760   1.411       .  A
C755        C764   1.402       .  A
N756        O771   1.262   1_545  A
N756        O772   1.263       .  A
N758        O769   1.263       .  A
C760        C761   1.402       .  A
C760        N765   1.434       .  S
C761        C762   1.405       .  A
C761        H766   1.084       .  S
C762        C763   1.412       .  A
C763        C764   1.401       .  A
C763        N767   1.429       .  S
C764        H768   1.084       .  S
N765        O775   1.262       .  A
N765        O776   1.262       .  A
N767        O773   1.262       .  A
N767        O774   1.262       .  A
C777        C778   1.402       .  A
C777        C782   1.406       .  A
C777        H787   1.084       .  S
C778        C783   1.478       .  S
C778        C779   1.404       .  A
C779        C780   1.396       .  A
C779        N784   1.430       .  S
C780        C781   1.410       .  A
C780        H785   1.083       .  S
C781        C782   1.417       .  A
C782        N786   1.428       .  S
C783        C788   1.406       .  A
C783        C792   1.402       .  A
N784        O799   1.262       .  A
N784        O800   1.262       .  A
N786        O797   1.262       .  A
N786        O798   1.262       .  A
C788        C789   1.402       .  A
C788        N793   1.430       .  S
C789        C790   1.408       .  A
C789        H794   1.083       .  S
C790        C791   1.414       .  A
C791        C792   1.401       .  A
C791        N795   1.429       .  S
C792        H796   1.084       .  S
N793        O803   1.262       .  A
N793        O804   1.262       .  A
N795        O801   1.262       .  A
N795        O802   1.262       .  A
C805        C806   1.403       .  A
C805        C810   1.399       .  A
C805        H815   1.084       .  S
C806        C811   1.479       .  S
C806        C807   1.410       .  A
C807        C808   1.398       .  A
C807        N812   1.436       .  S
C808        C809   1.407       .  A
C808        H813   1.083       .  S
C809        C810   1.416       .  A
C810        N814   1.433       .  S
C811        C816   1.410       .  A
C811        C820   1.402       .  A
N812        O827   1.262       .  A
N812        O828   1.263       .  A
N814        O825   1.262       .  A
N814        O826   1.262       .  A
C816        C817   1.399       .  A
C816        N821   1.437       .  S
C817        C818   1.409       .  A
C817        H822   1.083       .  S
C818        C819   1.414       .  A
C819        C820   1.399       .  A
C819        N823   1.428       .  S
C820        H824   1.084       .  S
N821        O831   1.262       .  A
N821        O832   1.263       .  A
N823        O829   1.262       .  A
N823        O830   1.262       .  A
