geometry optimzed in LAMMPS
_audit_creation_date              2020-12-01 
_audit_creation_method            'lammps2cif' 
_symmetry_space_group_name_H-M    'P1' 
_symmetry_Int_Tables_number       1 
_symmetry_cell_setting            triclinic 
loop_ 
_symmetry_equiv_pos_as_xyz 
  x,y,z 
_cell_length_a                    30.90988524 
_cell_length_b                    33.52758313018831 
_cell_length_c                    46.74401708177513 
_cell_angle_alpha                 89.99860709571975 
_cell_angle_beta                  90.14490727375313 
_cell_angle_gamma                 123.41807205398017 
loop_ 
_atom_site_label 
_atom_site_type_symbol 
_atom_site_fract_x 
_atom_site_fract_y 
_atom_site_fract_z 
_atom_site_charge 
C1          C  0.16459370  0.33021884  0.37479469     0.80400
N2          N  0.15672882  0.30685138  0.40020303    -0.77900
C3          C  0.13847028  0.25954805  0.40009297     0.82900
N4          N  0.12912663  0.23681684  0.37469988    -0.77800
C5          C  0.13719290  0.25933575  0.34935680     0.82900
N6          N  0.15549094  0.30662998  0.34934411    -0.79600
C7          C  0.16628812  0.96819243  0.37456859     0.80400
N8          N  0.15633873  0.98194602  0.39994632    -0.77900
C9          C  0.13592765  0.00894333  0.39983277     0.82900
N10         N  0.12667983  0.02227147  0.37443233    -0.77800
C11         C  0.13692446  0.00967884  0.34909450     0.82900
N12         N  0.15730958  0.98263115  0.34910531    -0.79600
C13         C  0.37984970  0.79301559  0.37992759     0.80400
N14         N  0.43248796  0.81906937  0.38104543    -0.77900
C15         C  0.45817783  0.79671495  0.38102495     0.82900
N16         N  0.43110334  0.74823473  0.37981899    -0.77800
C17         C  0.37847347  0.72212672  0.37872244     0.82900
N18         N  0.35294082  0.74457787  0.37876277    -0.79600
C19         C  0.88430011  0.00940137  0.37474218     0.80400
N20         N  0.91105320  0.02228326  0.40002506    -0.77900
C21         C  0.96368685  0.04793457  0.39966028     0.82900
N22         N  0.98849773  0.06026811  0.37442418    -0.77800
C23         C  0.96297542  0.04801995  0.34930383     0.82900
N24         N  0.91024595  0.02224822  0.34923922    -0.79600
Zr25       Zr  0.12672265  0.12883689  0.44553428     2.17500
O26         O  0.18762585  0.15958219  0.40571580    -0.51100
O27         O  0.04525801  0.08846345  0.42039066    -0.74300
O28         O  0.12659778  0.06659040  0.42025559    -0.81100
O29         O  0.13662301  0.24792529  0.45150739    -0.82900
O30         O  0.13361740  0.01813431  0.45123771    -0.78500
O31         O  0.12969514  0.19254829  0.42037620    -0.90100
O32         O  0.97620421  0.05307209  0.45032382    -0.76100
O33         O  0.07063920  0.05715496  0.47092514    -0.85600
O34         O  0.07160901  0.14446129  0.47126593    -0.85300
O35         O  0.18374144  0.11640207  0.47287016    -0.72000
O36         O  0.18421917  0.19876538  0.47297529    -0.84200
Zr37       Zr  0.12866575  0.12966154  0.05398468     2.26400
Zr38       Zr  0.12670948  0.04476478  0.49958942     2.06300
Zr39       Zr  0.12828929  0.21357843  0.99978975     2.10000
Zr40       Zr  0.01611636  0.07316383  0.49754103     1.78800
O41         O  0.19831798  0.29766417  0.00234773    -0.93000
O42         O  0.95707495  0.98645445  0.49813887    -0.40800
O43         O  0.07175730  0.14203503  0.02663954    -0.77400
O44         O  0.07089765  0.05967115  0.02660049    -0.96100
O45         O  0.18358182  0.11392736  0.02822558    -0.89400
O46         O  0.18439900  0.20114965  0.02828793    -0.92300
C47         C  0.99641038  0.06377224  0.42533811     1.01500
C48         C  0.13459287  0.23222087  0.42597064     1.14400
C49         C  0.13134789  0.03177887  0.42574734     1.05200
O50         O  0.05533452  0.96108428  0.49741222    -0.94400
O51         O  0.12095025  0.01081034  0.04770248    -0.90200
O52         O  0.12677971  0.06595139  0.07860639    -0.83300
C53         C  0.12270029  0.02656693  0.07319134     1.11900
O54         O  0.29155665  0.21359147  0.45853836    -0.96400
Zr55       Zr  0.23925846  0.18533022  0.00191999     1.88900
O56         O  0.21047385  0.16967778  0.07889820    -0.73000
O57         O  0.19374446  0.02776676  0.00197650    -0.52300
O58         O  0.29594581  0.15598426  0.00184237    -0.97000
O59         O  0.30044701  0.27183531  0.00347990    -0.54200
O60         O  0.27961911  0.20383813  0.04905397    -0.73500
C61         C  0.25936582  0.19358430  0.07403107     0.98800
O62         O  0.06838405  0.09987448  0.09409497    -0.62400
O63         O  0.06033761  0.22940831  0.99697705    -0.57200
O64         O  0.12656553  0.19099684  0.07916051    -0.93900
O65         O  0.12031823  0.23976510  0.04802368    -0.92300
O66         O  0.95917992  0.10215631  0.49660426    -0.92600
O67         O  0.95925370  0.04690004  0.03905115    -0.91400
C68         C  0.12205487  0.22595548  0.07356257     1.17600
H69         H  0.05144724  0.15087840  0.45856681     0.33600
H70         H  0.04938695  0.03300915  0.03915223     0.44400
H71         H  0.20464100  0.22783940  0.04110748     0.38000
H72         H  0.20511988  0.11149851  0.46025531     0.34400
H73         H  0.92308785  0.98037980  0.49237698     0.26200
H74         H  0.17665633  0.99449117  0.99498315     0.32200
H75         H  0.32985801  0.18325150  0.00871708     0.38100
H76         H  0.92491403  0.07412008  0.49081533     0.32500
H77         H  0.07913810  0.26466501  0.99605417     0.31400
H78         H  0.18076936  0.31457993  0.00573418     0.33100
H79         H  0.33350548  0.27666590  0.01004272     0.32100
H80         H  0.97392117  0.03490300  0.05279386     0.36100
H81         H  0.04392113  0.10944708  0.08983915     0.28800
H82         H  0.20954218  0.14679899  0.40861201     0.33000
H83         H  0.32797736  0.22927298  0.46496092     0.35900
H84         H  0.04487868  0.21835316  0.47770049     0.28500
H85         H  0.04693840  0.06467537  0.09195014     0.41400
H86         H  0.03963564  0.95715330  0.47827585     0.31400
H87         H  0.96775873  0.97526149  0.48167407     0.39000
H88         H  0.28910635  0.28291286  0.01968874     0.30900
H89         H  0.21855824  0.04756697  0.48669962     0.30900
H90         H  0.21153005  0.19422352  0.40952467     0.31200
Zr91       Zr  0.12842635  0.13039775  0.19549606     2.17500
O92         O  0.06802378  0.10096871  0.15525583    -0.51100
O93         O  0.20997350  0.17062289  0.17068040    -0.74300
O94         O  0.12877864  0.19302467  0.17056414    -0.81100
O95         O  0.11904061  0.01158576  0.20130439    -0.82900
O96         O  0.12274583  0.24198440  0.20157268    -0.78500
O97         O  0.12537380  0.06673644  0.17020021    -0.90100
O98         O  0.27891407  0.20420942  0.20089383    -0.76100
O99         O  0.18460695  0.20173444  0.22135598    -0.85600
O100        O  0.18301545  0.11404870  0.22137836    -0.85300
O101        O  0.07150707  0.14294163  0.22261715    -0.72000
O102        O  0.07026293  0.06034438  0.22252398    -0.84200
Zr103      Zr  0.12585476  0.12902469  0.30381899     2.26400
Zr104      Zr  0.12847888  0.21419733  0.24975159     2.06300
Zr105      Zr  0.12575161  0.04501645  0.24961388     2.10000
Zr106      Zr  0.23875397  0.18507750  0.24797201     1.78800
O107        O  0.05398863  0.96161310  0.25238305    -0.93000
O108        O  0.29969321  0.27148417  0.24702317    -0.40800
O109        O  0.18255283  0.11621909  0.27676550    -0.77400
O110        O  0.18424737  0.19901336  0.27675551    -0.96100
O111        O  0.07109838  0.14514554  0.27807399    -0.89400
O112        O  0.06990210  0.05776925  0.27786370    -0.92300
C113        C  0.25880275  0.19435146  0.17581158     1.01500
C114        C  0.12104346  0.02731426  0.17579821     1.14400
C115        C  0.12460521  0.22816226  0.17607826     1.05200
O116        O  0.19627950  0.29904767  0.24800469    -0.94400
O117        O  0.13574184  0.24833911  0.29790936    -0.90200
O118        O  0.12706269  0.19200731  0.32879450    -0.83300
C119        C  0.13268994  0.23202063  0.32336582     1.11900
O120        O  0.96327900  0.04761562  0.20771910    -0.96400
Zr121      Zr  0.01539165  0.07400352  0.25135452     1.88900
O122        O  0.04422278  0.08844123  0.32850536    -0.73000
O123        O  0.05842887  0.22707317  0.25261274    -0.52300
O124        O  0.95870691  0.10337424  0.25141013    -0.97000
O125        O  0.95412961  0.98750557  0.25202287    -0.54200
O126        O  0.97505824  0.05407324  0.29846353    -0.73500
C127        C  0.99534385  0.06416355  0.32351225     0.98800
O128        O  0.18513637  0.15966637  0.34457231    -0.62400
O129        O  0.19228106  0.02733019  0.24766375    -0.57200
O130        O  0.12753128  0.06739921  0.32877565    -0.93900
O131        O  0.13470658  0.01917248  0.29770103    -0.92300
O132        O  0.29600453  0.15639769  0.24912086    -0.92600
O133        O  0.29280945  0.21309530  0.29078626    -0.91400
C134        C  0.13260482  0.03279256  0.32321257     1.17600
H135        H  0.20308415  0.10749853  0.20875973     0.33600
H136        H  0.20598395  0.22551690  0.28944180     0.44400
H137        H  0.04955433  0.03103856  0.29057181     0.38000
H138        H  0.05036100  0.14811484  0.20991105     0.34400
H139        H  0.33295889  0.27638242  0.24093523     0.26200
H140        H  0.07455949  0.26089881  0.24704542     0.32200
H141        H  0.92524920  0.07652215  0.25894931     0.38100
H142        H  0.33002222  0.18397743  0.24272743     0.32500
H143        H  0.17334100  0.99299496  0.24263251     0.31400
H144        H  0.07073696  0.94373397  0.25465119     0.33100
H145        H  0.92205649  0.98239425  0.26040611     0.32100
H146        H  0.27841190  0.18444135  0.30305676     0.36100
H147        H  0.20737632  0.14712990  0.34220366     0.28800
H148        H  0.04568610  0.11320421  0.15849504     0.33000
H149        H  0.92674466  0.03017701  0.21409231     0.35900
H150        H  0.21293023  0.04412658  0.23043026     0.28500
H151        H  0.20902240  0.19437398  0.34105334     0.41400
H152        H  0.21865676  0.30220501  0.23187522     0.31400
H153        H  0.28862686  0.28233751  0.23052193     0.39000
H154        H  0.96744310  0.97569931  0.26677601     0.30900
H155        H  0.03509434  0.20850291  0.23646426     0.30900
H156        H  0.04443073  0.06612369  0.15840774     0.31200
C157        C  0.37076986  0.24748700  0.12538725     0.80400
N158        N  0.34461583  0.23463540  0.09985847    -0.77900
C159        C  0.29189379  0.20930642  0.09985951     0.82900
N160        N  0.26656585  0.19745237  0.12493560    -0.77800
C161        C  0.29152144  0.20984142  0.15020933     0.82900
N162        N  0.34417765  0.23511068  0.15064766    -0.79600
C163        C  0.09034919  0.29228810  0.12471408     0.80400
N164        N  0.09857718  0.27714678  0.09931787    -0.77900
C165        C  0.11823023  0.24948822  0.09940690     0.82900
N166        N  0.12852916  0.23700962  0.12478838    -0.77800
C167        C  0.12010605  0.25104750  0.15014094     0.82900
N168        N  0.10039883  0.27865645  0.15016380    -0.79600
C169        C  0.87633364  0.46745383  0.12986822     0.80400
N170        N  0.82365686  0.44100482  0.12998874    -0.77900
C171        C  0.79751494  0.46289381  0.13123761     0.82900
N172        N  0.82422409  0.51140122  0.13228585    -0.77800
C173        C  0.87692888  0.53792781  0.13218536     0.82900
N174        N  0.90284735  0.51587328  0.13096589    -0.79600
C175        C  0.09413532  0.92971798  0.12518110     0.80400
N176        N  0.10219305  0.95263900  0.09954295    -0.77900
C177        C  0.11885408  0.99961897  0.09930733     0.82900
N178        N  0.12622243  0.02230298  0.12454881    -0.77800
C179        C  0.11781612  0.00015379  0.15003229     0.82900
N180        N  0.10133928  0.95333667  0.15040105    -0.79600
C181        C  0.02062736  0.78465346  0.12924339     0.17200
C182        C  0.04443722  0.75950639  0.12558076    -0.11900
C183        C  0.01490074  0.70946547  0.12694969    -0.12700
C184        C  0.96138007  0.68423683  0.13200956     0.18800
C185        C  0.93771192  0.70944039  0.13592446    -0.14800
C186        C  0.96721714  0.75942580  0.13456230    -0.13100
C187        C  0.93069329  0.63259341  0.13272970    -0.00300
C188        C  0.90550439  0.58937959  0.13279191    -0.33100
C189        C  0.05042397  0.83616880  0.12721515     0.01100
C190        C  0.07236596  0.87910836  0.12578207    -0.34800
H191        H  0.08566831  0.77851143  0.12148708     0.12200
H192        H  0.03371322  0.69045333  0.12388356     0.12000
H193        H  0.89642699  0.69045954  0.13984630     0.11800
H194        H  0.94831373  0.77839350  0.13746401     0.10900
C195        C  0.01425807  0.36083849  0.12527198     0.17200
C196        C  0.03033648  0.40183629  0.10895808    -0.11900
C197        C  0.00191038  0.42304385  0.10950573    -0.12700
C198        C  0.95717181  0.40339621  0.12635398     0.18800
C199        C  0.94101376  0.36229963  0.14255659    -0.14800
C200        C  0.96941402  0.34111414  0.14201064    -0.13100
C201        C  0.92816909  0.42556927  0.12729014    -0.00300
C202        C  0.90416060  0.44433669  0.12840543    -0.33100
C203        C  0.04338535  0.33876841  0.12481760     0.01100
C204        C  0.06609764  0.31872871  0.12470949    -0.34800
H205        H  0.06483287  0.41742847  0.09587308     0.12200
H206        H  0.01488508  0.45479412  0.09687215     0.12000
H207        H  0.90655447  0.34671292  0.15567350     0.11800
H208        H  0.95644537  0.30939685  0.15467826     0.10900
C209        C  0.63857973  0.38172541  0.13035640     0.17200
C210        C  0.61070752  0.40310022  0.13404264    -0.11900
C211        C  0.55642610  0.37534116  0.13291185    -0.12700
C212        C  0.52951141  0.32595827  0.12807777     0.18800
C213        C  0.55734301  0.30449562  0.12456432    -0.14800
C214        C  0.61165869  0.33227118  0.12569787    -0.13100
C215        C  0.47349458  0.29753765  0.12668093    -0.00300
C216        C  0.42663278  0.27445235  0.12577923    -0.33100
C217        C  0.69466172  0.41057235  0.13099836     0.01100
C218        C  0.74157542  0.43464910  0.13122635    -0.34800
H219        H  0.63092897  0.44124094  0.13766214     0.12200
H220        H  0.53546001  0.39241413  0.13570712     0.12000
H221        H  0.53709834  0.26637413  0.12085547     0.11800
H222        H  0.63264247  0.31523338  0.12281649     0.11700
C223        C  0.61691280  0.87601067  0.38083254     0.17200
C224        C  0.64318695  0.91831156  0.36481585    -0.11900
C225        C  0.69738929  0.94540305  0.36330236    -0.12700
C226        C  0.72578519  0.93042019  0.37779579     0.18800
C227        C  0.69956566  0.88819967  0.39391249    -0.14800
C228        C  0.64531428  0.86108095  0.39542563    -0.13100
C229        C  0.78169302  0.95838924  0.37617501    -0.00300
C230        C  0.82849672  0.98179760  0.37512107    -0.33100
C231        C  0.56091294  0.84773087  0.38182695     0.01100
C232        C  0.51403607  0.82437900  0.38182194    -0.34800
H233        H  0.62175933  0.93025161  0.35340525     0.12200
H234        H  0.71712713  0.97795999  0.35079541     0.12000
H235        H  0.72102736  0.87621840  0.40524655     0.11800
H236        H  0.62555266  0.82844557  0.40785838     0.10900
C237        C  0.29924745  0.85722029  0.37825626     0.17200
C238        C  0.25744165  0.84011188  0.35923694    -0.11900
C239        C  0.22903050  0.86127849  0.35836882    -0.12700
C240        C  0.24222697  0.89970118  0.37651920     0.18800
C241        C  0.28396608  0.91674374  0.39557302    -0.14800
C242        C  0.31237031  0.89558372  0.39644042    -0.13100
C243        C  0.21350042  0.92205907  0.37541504    -0.00300
C244        C  0.19086676  0.94211550  0.37477317    -0.33100
C245        C  0.32853406  0.83538639  0.37911986     0.01100
C246        C  0.35247748  0.81656092  0.37964924    -0.34800
H247        H  0.24686179  0.81047651  0.34507011     0.12200
H248        H  0.19691849  0.84778713  0.34351788     0.12000
H249        H  0.29462793  0.94645183  0.40969525     0.11800
H250        H  0.34455708  0.90915796  0.41124661     0.10900
C251        C  0.23826960  0.47556526  0.37525435     0.17200
C252        C  0.25182524  0.50007200  0.40142009    -0.11900
C253        C  0.28039160  0.55008460  0.40193934    -0.12700
C254        C  0.29567818  0.57598610  0.37629248     0.18800
C255        C  0.28214743  0.55149084  0.35010819    -0.14800
C256        C  0.25356855  0.50144648  0.34958875    -0.13100
C257        C  0.32517839  0.62757630  0.37688775    -0.00300
C258        C  0.34970688  0.67073259  0.37761538    -0.33100
C259        C  0.20973510  0.42402390  0.37482836     0.01100
C260        C  0.18765553  0.38102606  0.37478370    -0.34800
H261        H  0.24045866  0.48053117  0.42140915     0.12200
H262        H  0.29061365  0.56853826  0.42232357     0.12000
H263        H  0.29374372  0.57105401  0.33012708     0.11800
H264        H  0.24356046  0.48297664  0.32921386     0.10900
C265        C  0.16459369  0.33021982  0.87479386     0.80400
N266        N  0.15672849  0.30685238  0.90020229    -0.77900
C267        C  0.13847075  0.25954918  0.90009235     0.82900
N268        N  0.12912828  0.23681818  0.87469931    -0.77800
C269        C  0.13719441  0.25933682  0.84935619     0.82900
N270        N  0.15549159  0.30663090  0.84934331    -0.79600
C271        C  0.16628719  0.96819255  0.87456848     0.80400
N272        N  0.15633797  0.98194625  0.89994620    -0.77900
C273        C  0.13592608  0.00894287  0.89983265     0.82900
N274        N  0.12667773  0.02227056  0.87443216    -0.77800
C275        C  0.13692255  0.00967801  0.84909434     0.82900
N276        N  0.15730808  0.98263072  0.84910521    -0.79600
C277        C  0.37985008  0.79301745  0.87992396     0.80400
N278        N  0.43248809  0.81907038  0.88104452    -0.77900
C279        C  0.45817705  0.79671519  0.88102739     0.82900
N280        N  0.43110189  0.74823488  0.87982202    -0.77800
C281        C  0.37847217  0.72212767  0.87872265     0.82900
N282        N  0.35294041  0.74457967  0.87875970    -0.79600
C283        C  0.88429885  0.00939723  0.87474124     0.80400
N284        N  0.91105146  0.02228029  0.90002434    -0.77900
C285        C  0.96368534  0.04793457  0.89965996     0.82900
N286        N  0.98849675  0.06026976  0.87442401    -0.77800
C287        C  0.96297491  0.04802005  0.84930349     0.82900
N288        N  0.91024537  0.02224548  0.84923850    -0.79600
Zr289      Zr  0.12672217  0.12883719  0.94553384     2.17500
O290        O  0.18762594  0.15958342  0.90571552    -0.51100
O291        O  0.04525654  0.08846106  0.92039064    -0.74300
O292        O  0.12659847  0.06659130  0.92025529    -0.81100
O293        O  0.13662078  0.24792518  0.95150685    -0.82900
O294        O  0.13361513  0.01813366  0.95123762    -0.78500
O295        O  0.12969653  0.19254971  0.92037569    -0.90100
O296        O  0.97620249  0.05307459  0.95032367    -0.76100
O297        O  0.07063838  0.05715553  0.97092488    -0.85600
O298        O  0.07160819  0.14446133  0.97126532    -0.85300
O299        O  0.18374020  0.11640183  0.97287026    -0.72000
O300        O  0.18421901  0.19876578  0.97297480    -0.84200
Zr301      Zr  0.12866616  0.12966128  0.55398517     2.26400
Zr302      Zr  0.12670768  0.04476450  0.99958942     2.06300
Zr303      Zr  0.12828989  0.21357845  0.49979035     2.10000
Zr304      Zr  0.01611522  0.07316406  0.99754068     1.78800
O305        O  0.19831606  0.29766526  0.50234667    -0.93000
O306        O  0.95707439  0.98645449  0.99813521    -0.40800
O307        O  0.07175784  0.14203496  0.52663995    -0.77400
O308        O  0.07089903  0.05967095  0.52660048    -0.96100
O309        O  0.18358241  0.11392732  0.52822612    -0.89400
O310        O  0.18439934  0.20114936  0.52828847    -0.92300
C311        C  0.99640876  0.06377220  0.92533797     1.01500
C312        C  0.13459275  0.23222171  0.92597009     1.14400
C313        C  0.13134692  0.03177884  0.92574716     1.05200
O314        O  0.05532735  0.96108627  0.99741173    -0.94400
O315        O  0.12095108  0.01081008  0.54770228    -0.90200
O316        O  0.12678121  0.06595133  0.57860632    -0.83300
C317        C  0.12270137  0.02656672  0.57319113     1.11900
O318        O  0.29155497  0.21358909  0.95853729    -0.96400
Zr319      Zr  0.23925867  0.18532992  0.50192036     1.88900
O320        O  0.21047480  0.16967813  0.57889836    -0.73000
O321        O  0.19375073  0.02777280  0.50197609    -0.52300
O322        O  0.29594211  0.15597976  0.50184128    -0.97000
O323        O  0.30044736  0.27183480  0.50347942    -0.54200
O324        O  0.27962003  0.20383799  0.54905409    -0.73500
C325        C  0.25936682  0.19358463  0.57403119     0.98800
O326        O  0.06838408  0.09987355  0.59409534    -0.62400
O327        O  0.06033503  0.22940420  0.49697650    -0.57200
O328        O  0.12656659  0.19099666  0.57916145    -0.93900
O329        O  0.12032243  0.23976682  0.54802462    -0.92300
O330        O  0.95918278  0.10216098  0.99660700    -0.92600
O331        O  0.95925994  0.04690686  0.53905340    -0.91400
C332        C  0.12205784  0.22595644  0.57356351     1.17600
H333        H  0.05144668  0.15087857  0.95856614     0.33600
H334        H  0.04938834  0.03300868  0.53915205     0.44400
H335        H  0.20464139  0.22783909  0.54110801     0.38000
H336        H  0.20511839  0.11149791  0.96025556     0.34400
H337        H  0.92308615  0.98038041  0.99237648     0.26200
H338        H  0.17666484  0.99449760  0.49498241     0.32200
H339        H  0.32985490  0.18324556  0.50871645     0.38100
H340        H  0.92491629  0.07412654  0.99081714     0.32500
H341        H  0.07913388  0.26466105  0.49605720     0.31400
H342        H  0.18076573  0.31458046  0.50572924     0.33100
H343        H  0.33350476  0.27666546  0.51004457     0.32100
H344        H  0.97391987  0.03489846  0.55279309     0.36100
H345        H  0.04392202  0.10944737  0.58984014     0.28800
H346        H  0.20954122  0.14679904  0.90861114     0.33000
H347        H  0.32797636  0.22927616  0.96495971     0.35900
H348        H  0.04487619  0.21835213  0.97770251     0.28500
H349        H  0.04693761  0.06467459  0.59194969     0.41400
H350        H  0.03962564  0.95715847  0.97827659     0.31400
H351        H  0.96775516  0.97526380  0.98166782     0.39000
H352        H  0.28910428  0.28291324  0.51968666     0.30900
H353        H  0.21855250  0.04755954  0.98669990     0.30900
H354        H  0.21153097  0.19422440  0.90952504     0.31200
Zr355      Zr  0.12842668  0.13039751  0.69549606     2.17500
O356        O  0.06802532  0.10097055  0.65525528    -0.51100
O357        O  0.20997420  0.17062516  0.67068044    -0.74300
O358        O  0.12877906  0.19302456  0.67056487    -0.81100
O359        O  0.11904070  0.01158576  0.70130397    -0.82900
O360        O  0.12274609  0.24198427  0.70157321    -0.78500
O361        O  0.12537200  0.06673557  0.67019973    -0.90100
O362        O  0.27891496  0.20421347  0.70089370    -0.76100
O363        O  0.18460659  0.20173439  0.72135596    -0.85600
O364        O  0.18301651  0.11404861  0.72137775    -0.85300
O365        O  0.07150613  0.14294014  0.72261682    -0.72000
O366        O  0.07026335  0.06034407  0.72252395    -0.84200
Zr367      Zr  0.12585429  0.12902446  0.80381857     2.26400
Zr368      Zr  0.12847713  0.21419576  0.74975149     2.06300
Zr369      Zr  0.12575245  0.04501653  0.74961358     2.10000
Zr370      Zr  0.23875420  0.18507759  0.74797157     1.78800
O371        O  0.05399152  0.96161216  0.75238049    -0.93000
O372        O  0.29969543  0.27148415  0.74702613    -0.40800
O373        O  0.18255306  0.11621935  0.77676522    -0.77400
O374        O  0.18424684  0.19901291  0.77675499    -0.96100
O375        O  0.07109661  0.14514425  0.77807404    -0.89400
O376        O  0.06990211  0.05776856  0.77786338    -0.92300
C377        C  0.25880358  0.19435509  0.67581153     1.01500
C378        C  0.12104214  0.02731358  0.67579776     1.14400
C379        C  0.12460575  0.22816216  0.67607894     1.05200
O380        O  0.19627535  0.29904653  0.74800552    -0.94400
O381        O  0.13574131  0.24833880  0.79790888    -0.90200
O382        O  0.12706341  0.19200776  0.82879416    -0.83300
C383        C  0.13269065  0.23202108  0.82336537     1.11900
O384        O  0.96327822  0.04761742  0.70771884    -0.96400
Zr385      Zr  0.01539098  0.07400216  0.75135426     1.88900
O386        O  0.04422260  0.08844206  0.82850528    -0.73000
O387        O  0.05842689  0.22707205  0.75260780    -0.52300
O388        O  0.95870526  0.10337191  0.75141052    -0.97000
O389        O  0.95413028  0.98750391  0.75202113    -0.54200
O390        O  0.97505808  0.05407154  0.79846336    -0.73500
C391        C  0.99534366  0.06416342  0.82351210     0.98800
O392        O  0.18513640  0.15966781  0.84457155    -0.62400
O393        O  0.19228291  0.02733145  0.74766495    -0.57200
O394        O  0.12753138  0.06739948  0.82877540    -0.93900
O395        O  0.13470473  0.01917144  0.79770091    -0.92300
O396        O  0.29600462  0.15639738  0.74911496    -0.92600
O397        O  0.29280940  0.21309028  0.79078590    -0.91400
C398        C  0.13260362  0.03279207  0.82321241     1.17600
H399        H  0.20308523  0.10749872  0.70875882     0.33600
H400        H  0.20598326  0.22551654  0.78944130     0.44400
H401        H  0.04955445  0.03103790  0.79057156     0.38000
H402        H  0.05035998  0.14811312  0.70991053     0.34400
H403        H  0.33296124  0.27638222  0.74093857     0.26200
H404        H  0.07455835  0.26089762  0.74703995     0.32200
H405        H  0.92524990  0.07652191  0.75895351     0.38100
H406        H  0.33002326  0.18397935  0.74272446     0.32500
H407        H  0.17334385  0.99299697  0.74263193     0.31400
H408        H  0.07074050  0.94373549  0.75466023     0.33100
H409        H  0.92205664  0.98239163  0.76040423     0.32100
H410        H  0.27840603  0.18443671  0.80305721     0.36100
H411        H  0.20737515  0.14712991  0.84220380     0.28800
H412        H  0.04568950  0.11320831  0.65849351     0.33000
H413        H  0.92674384  0.03017745  0.71409214     0.35900
H414        H  0.21293464  0.04413049  0.73043264     0.28500
H415        H  0.20902343  0.19437497  0.84105151     0.41400
H416        H  0.21866310  0.30220242  0.73188227     0.31400
H417        H  0.28863100  0.28233970  0.73052513     0.39000
H418        H  0.96744377  0.97569746  0.76677413     0.30900
H419        H  0.03509428  0.20850158  0.73645870     0.30900
H420        H  0.04443009  0.06612587  0.65840757     0.31200
C421        C  0.37077100  0.24748912  0.62538745     0.80400
N422        N  0.34461699  0.23463632  0.59985862    -0.77900
C423        C  0.29189489  0.20930772  0.59985960     0.82900
N424        N  0.26656692  0.19745529  0.62493562    -0.77800
C425        C  0.29152241  0.20984533  0.65020935     0.82900
N426        N  0.34417861  0.23511406  0.65064778    -0.79600
C427        C  0.09035279  0.29228961  0.62471473     0.80400
N428        N  0.09858141  0.27714868  0.59931858    -0.77900
C429        C  0.11823349  0.24948936  0.59940777     0.82900
N430        N  0.12853097  0.23700982  0.62478931    -0.77800
C431        C  0.12010742  0.25104759  0.65014174     0.82900
N432        N  0.10040090  0.27865701  0.65016449    -0.79600
C433        C  0.87633577  0.46745264  0.62986926     0.80400
N434        N  0.82365899  0.44100345  0.62999034    -0.77900
C435        C  0.79751691  0.46289236  0.63123826     0.82900
N436        N  0.82422599  0.51139988  0.63228513    -0.77800
C437        C  0.87693085  0.53792665  0.63218408     0.82900
N438        N  0.90284938  0.51587214  0.63096544    -0.79600
C439        C  0.09413461  0.92971721  0.62518073     0.80400
N440        N  0.10219334  0.95263849  0.59954258    -0.77900
C441        C  0.11885445  0.99961847  0.59930701     0.82900
N442        N  0.12622192  0.02230225  0.62454847    -0.77800
C443        C  0.11781448  0.00015283  0.65003190     0.82900
N444        N  0.10133748  0.95333566  0.65040067    -0.79600
C445        C  0.02062644  0.78465258  0.62924141     0.17200
C446        C  0.04445159  0.75950993  0.62562601    -0.11900
C447        C  0.01491558  0.70946888  0.62699503    -0.12700
C448        C  0.96138027  0.68423590  0.63200797     0.18800
C449        C  0.93769636  0.70943518  0.63587560    -0.14800
C450        C  0.96720091  0.75942054  0.63451328    -0.13100
C451        C  0.93069521  0.63259240  0.63272790    -0.00300
C452        C  0.90550641  0.58937852  0.63279000    -0.33100
C453        C  0.05042416  0.83616811  0.62721426     0.01100
C454        C  0.07236592  0.87910770  0.62578162    -0.34800
H455        H  0.08569456  0.77851838  0.62156924     0.12200
H456        H  0.03374034  0.69046007  0.62396559     0.12000
H457        H  0.89640008  0.69045099  0.63976080     0.11800
H458        H  0.94828567  0.77838482  0.63737843     0.10900
C459        C  0.01426138  0.36083905  0.62527339     0.17200
C460        C  0.03034476  0.40184207  0.60896386    -0.11900
C461        C  0.00191803  0.42304891  0.60951165    -0.12700
C462        C  0.95717395  0.40339527  0.62635571     0.18800
C463        C  0.94101088  0.36229339  0.64255392    -0.14800
C464        C  0.96941178  0.34110859  0.64200779    -0.13100
C465        C  0.92817105  0.42556800  0.62729222    -0.00300
C466        C  0.90416278  0.44433556  0.62840728    -0.33100
C467        C  0.04338934  0.33876984  0.62481872     0.01100
C468        C  0.06610184  0.31873051  0.62471011    -0.34800
H469        H  0.06484554  0.41743890  0.59588218     0.12200
H470        H  0.01489660  0.45480335  0.59688156     0.12000
H471        H  0.90654733  0.34670215  0.65566763     0.11800
H472        H  0.95643938  0.30938714  0.65467197     0.10900
C473        C  0.63858136  0.38172501  0.63035710     0.17200
C474        C  0.61071052  0.40310314  0.63403371    -0.11900
C475        C  0.55642903  0.37534491  0.63290301    -0.12700
C476        C  0.52951282  0.32595938  0.62807855     0.18800
C477        C  0.55734302  0.30449349  0.62457452    -0.14800
C478        C  0.61165878  0.33226830  0.62570796    -0.13100
C479        C  0.47349589  0.29753934  0.62668166    -0.00300
C480        C  0.42663404  0.27445422  0.62577963    -0.33100
C481        C  0.69466347  0.41057098  0.63099923     0.01100
C482        C  0.74157726  0.43464744  0.63122729    -0.34800
H483        H  0.63093314  0.44124585  0.63764571     0.12200
H484        H  0.53546416  0.39242044  0.63569086     0.12000
H485        H  0.53709718  0.26637002  0.62087310     0.11800
H486        H  0.63264139  0.31522791  0.62283390     0.11700
C487        C  0.61691191  0.87601101  0.88083766     0.17200
C488        C  0.64318548  0.91831341  0.86482232    -0.11900
C489        C  0.69738768  0.94540323  0.86330649    -0.12700
C490        C  0.72578386  0.93041717  0.87779635     0.18800
C491        C  0.69956486  0.88819556  0.89391201    -0.14800
C492        C  0.64531377  0.86107858  0.89542742    -0.13100
C493        C  0.78169158  0.95838449  0.87617363    -0.00300
C494        C  0.82849530  0.98179212  0.87511955    -0.33100
C495        C  0.56091206  0.84773118  0.88183282     0.01100
C496        C  0.51403520  0.82437880  0.88182692    -0.34800
H497        H  0.62175754  0.93025556  0.85341428     0.12200
H498        H  0.71712507  0.97796113  0.85080048     0.12000
H499        H  0.72102678  0.87621194  0.90524343     0.11800
H500        H  0.62555254  0.82844195  0.90785912     0.10900
C501        C  0.29925198  0.85722581  0.87825012     0.17200
C502        C  0.25736693  0.84004333  0.85928025    -0.11900
C503        C  0.22895573  0.86120996  0.85841361    -0.12700
C504        C  0.24223157  0.89970671  0.87651600     0.18800
C505        C  0.28405048  0.91682386  0.89552017    -0.14800
C506        C  0.31245482  0.89566395  0.89638603    -0.13100
C507        C  0.21350266  0.92206224  0.87541367    -0.00300
C508        C  0.19086726  0.94211702  0.87477290    -0.33100
C509        C  0.32853723  0.83539065  0.87911314     0.01100
C510        C  0.35247916  0.81656385  0.87964325    -0.34800
H511        H  0.24672497  0.81034990  0.84515103     0.12200
H512        H  0.19678141  0.84766042  0.84360131     0.12000
H513        H  0.29477380  0.94658939  0.90960497     0.11800
H514        H  0.34470343  0.90929594  0.91115366     0.10900
C515        C  0.23826935  0.47556638  0.87525437     0.17200
C516        C  0.25185007  0.50007356  0.90142047    -0.11900
C517        C  0.28041577  0.55008612  0.90194000    -0.12700
C518        C  0.29567660  0.57598718  0.87629303     0.18800
C519        C  0.28212102  0.55149153  0.85010837    -0.14800
C520        C  0.25354275  0.50144718  0.84958864    -0.13100
C521        C  0.32517618  0.62757729  0.87688851    -0.00300
C522        C  0.34970483  0.67073357  0.87761600    -0.33100
C523        C  0.20973507  0.42402500  0.87482774     0.01100
C524        C  0.18765548  0.38102711  0.87478279    -0.34800
H525        H  0.24050336  0.48053307  0.92140956     0.12200
H526        H  0.29065730  0.56854015  0.92232451     0.12000
H527        H  0.29369742  0.57105435  0.83012720     0.11800
H528        H  0.24351521  0.48297705  0.82921343     0.10900
loop_ 
_geom_bond_atom_site_label_1 
_geom_bond_atom_site_label_2 
_geom_bond_distance 
_geom_bond_site_symmetry_2 
_ccdc_geom_bond_type 
C1            N2   1.369       .  A
C1            N6   1.369       .  A
C1          C260   1.440       .  S
N2            C3   1.359       .  A
C3            N4   1.352       .  A
C3           C48   1.482       .  S
N4            C5   1.353       .  A
C5            N6   1.359       .  A
C5          C119   1.481       .  S
C7            N8   1.368       .  A
C7           N12   1.369       .  A
C7          C244   1.440       .  S
N8            C9   1.359   1_565  A
C9           N10   1.353       .  A
C9           C49   1.481       .  S
N10          C11   1.353       .  A
C11          N12   1.360   1_545  A
C11         C134   1.482       .  S
C13          N14   1.359       .  A
C13          N18   1.358       .  A
C13         C246   1.440       .  S
N14          C15   1.359       .  A
C15          N16   1.359       .  A
C15         C232   1.442       .  S
N16          C17   1.359       .  A
C17          N18   1.358       .  A
C17         C258   1.440       .  S
C19          N20   1.367       .  A
C19          N24   1.369       .  A
C19         C230   1.440   1_545  S
N20          C21   1.359       .  A
C21          N22   1.344       .  A
C21          C47   1.466       .  S
N22          C23   1.345       .  A
C23          N24   1.361       .  A
C23         C127   1.469       .  S
Zr25         O26   2.439       .  S
Zr25         O27   2.405       .  S
Zr25         O28   2.396       .  S
Zr25         O31   2.396       .  S
Zr25         O33   2.369       .  S
Zr25         O34   2.370       .  S
Zr25         O35   2.390       .  S
Zr25         O36   2.387       .  S
O26          H82   0.990       .  S
O26          H90   0.990       .  S
O27          C47   1.282   1_455  A
O28          C49   1.280       .  A
O29        Zr303   2.482       .  S
O29          C48   1.292       .  A
O30         Zr38   2.483       .  S
O30          C49   1.292       .  A
O31          C48   1.280       .  A
O32         Zr40   2.433   1_655  S
O32          C47   1.281       .  A
O33         Zr38   2.399       .  S
O33         Zr40   2.384       .  S
O34         Zr40   2.379       .  S
O34        Zr303   2.395       .  S
O34          H69   0.966       .  S
O35         Zr38   2.405       .  S
O35        Zr319   2.398       .  S
O35          H72   0.966       .  S
O36        Zr303   2.401       .  S
O36        Zr319   2.400       .  S
Zr37         O62   2.440       .  S
Zr37         O56   2.408       .  S
Zr37         O64   2.401       .  S
Zr37         O52   2.399       .  S
Zr37         O43   2.386       .  S
Zr37         O44   2.389       .  S
Zr37         O45   2.368       .  S
Zr37         O46   2.370       .  S
Zr38         O50   2.435   1_545  S
Zr38        O321   2.435       .  S
Zr38        O315   2.483       .  S
Zr38        O308   2.404       .  S
Zr38        O309   2.399       .  S
Zr39         O41   2.434   1_556  S
Zr39         O63   2.437       .  S
Zr39         O65   2.481   1_556  S
Zr39        O293   2.482       .  S
Zr39         O43   2.403   1_556  S
Zr39         O46   2.396   1_556  S
Zr39        O298   2.395       .  S
Zr39        O300   2.401       .  S
Zr40         O66   2.435   1_455  S
Zr40         O42   2.437   1_445  S
Zr40        O331   2.438   1_455  S
Zr40        O307   2.399       .  S
Zr40        O308   2.398       .  S
O41          H78   0.990       .  S
O42          H73   0.990       .  S
O42          H87   0.990       .  S
O43        Zr304   2.399   1_554  S
O44        Zr302   2.404   1_554  S
O44        Zr304   2.398   1_554  S
O44          H70   0.966       .  S
O45         Zr55   2.383       .  S
O45        Zr302   2.399   1_554  S
O46         Zr55   2.383       .  S
O46          H71   0.966       .  S
O50          H86   0.990       .  S
O51        Zr302   2.483   1_554  S
O51          C53   1.292       .  A
O52          C53   1.281       .  A
C53         C177   1.484   1_545  S
O54        Zr319   2.440       .  S
O54          H83   0.990       .  S
Zr55         O58   2.437       .  S
Zr55         O59   2.440       .  S
Zr55        O318   2.440   1_554  S
Zr55         O60   2.435       .  S
Zr55        O299   2.398   1_554  S
Zr55        O300   2.400   1_554  S
O56          C61   1.283       .  A
O57        Zr302   2.435   1_554  S
O57          H74   0.990   1_544  S
O57         H353   0.990   1_554  S
O58          H75   0.990       .  S
O59          H79   0.990       .  S
O59          H88   0.990       .  S
O60          C61   1.281       .  A
C61         C159   1.469       .  S
O62          H81   0.990       .  S
O62          H85   0.990       .  S
O63          H77   0.990       .  S
O63         H348   0.990       .  S
O64          C68   1.281       .  A
O65          C68   1.292       .  A
O66          H76   0.990       .  S
O67        Zr304   2.438   1_654  S
O67          H80   0.990       .  S
C68         C165   1.483       .  S
H84         O327   0.990       .  S
H89         O321   0.990       .  S
Zr91         O92   2.439       .  S
Zr91         O93   2.406       .  S
Zr91         O94   2.396       .  S
Zr91         O97   2.396       .  S
Zr91         O99   2.369       .  S
Zr91        O100   2.371       .  S
Zr91        O101   2.389       .  S
Zr91        O102   2.389       .  S
O92         H148   0.990       .  S
O92         H156   0.990       .  S
O93         C113   1.282       .  A
O94         C115   1.280       .  A
O95        Zr105   2.478       .  S
O95         C114   1.291       .  A
O96        Zr104   2.480       .  S
O96         C115   1.291       .  A
O97         C114   1.280       .  A
O98        Zr106   2.436       .  S
O98         C113   1.281       .  A
O99        Zr104   2.399       .  S
O99        Zr106   2.383       .  S
O100       Zr105   2.394       .  S
O100       Zr106   2.378       .  S
O100        H135   0.966       .  S
O101       Zr104   2.403       .  S
O101       Zr121   2.398       .  S
O101        H138   0.966       .  S
O102       Zr105   2.402       .  S
O102       Zr121   2.402       .  S
Zr103       O128   2.439       .  S
Zr103       O122   2.405       .  S
Zr103       O130   2.398       .  S
Zr103       O118   2.395       .  S
Zr103       O109   2.386       .  S
Zr103       O110   2.390       .  S
Zr103       O111   2.367       .  S
Zr103       O112   2.368       .  S
Zr104       O123   2.434       .  S
Zr104       O116   2.434       .  S
Zr104       O117   2.478       .  S
Zr104       O110   2.404       .  S
Zr104       O111   2.397       .  S
Zr105       O107   2.434   1_545  S
Zr105       O129   2.436       .  S
Zr105       O131   2.478       .  S
Zr105       O109   2.401       .  S
Zr105       O112   2.394       .  S
Zr106       O132   2.436       .  S
Zr106       O133   2.436       .  S
Zr106       O108   2.436       .  S
Zr106       O109   2.399       .  S
Zr106       O110   2.397       .  S
O107        H144   0.990       .  S
O108        H139   0.990       .  S
O108        H153   0.990       .  S
O110        H136   0.966       .  S
O111       Zr121   2.383       .  S
O112       Zr121   2.381       .  S
O112        H137   0.966       .  S
C113        C161   1.467       .  S
C114        C179   1.480       .  S
C115        C167   1.481       .  S
O116        H152   0.990       .  S
O117        C119   1.291       .  A
O118        C119   1.280       .  A
O120       Zr121   2.440   1_655  S
O120        H149   0.990       .  S
Zr121       O124   2.437   1_455  S
Zr121       O125   2.439   1_445  S
Zr121       O126   2.438   1_455  S
O122        C127   1.282   1_455  A
O123        H140   0.990       .  S
O123        H155   0.990       .  S
O124        H141   0.990       .  S
O125        H145   0.990       .  S
O125        H154   0.990       .  S
O126        C127   1.281       .  A
O128        H147   0.990       .  S
O128        H151   0.990       .  S
O129        H143   0.990   1_545  S
O129        H150   0.990       .  S
O130        C134   1.280       .  A
O131        C134   1.291       .  A
O132        H142   0.990       .  S
O133        H146   0.990       .  S
C157        N158   1.369       .  A
C157        N162   1.368       .  A
C157        C216   1.442       .  S
N158        C159   1.361       .  A
C159        N160   1.344       .  A
N160        C161   1.344       .  A
C161        N162   1.359       .  A
C163        N164   1.369       .  A
C163        N168   1.369       .  A
C163        C204   1.442       .  S
N164        C165   1.360       .  A
C165        N166   1.352       .  A
N166        C167   1.353       .  A
C167        N168   1.360       .  A
C169        N170   1.359       .  A
C169        N174   1.358       .  A
C169        C202   1.442       .  S
N170        C171   1.360       .  A
C171        N172   1.360       .  A
C171        C218   1.443       .  S
N172        C173   1.360       .  A
C173        N174   1.358       .  A
C173        C188   1.442       .  S
C175        N176   1.371       .  A
C175        N180   1.368       .  A
C175        C190   1.441       .  S
N176        C177   1.361       .  A
C177        N178   1.353   1_565  A
N178        C179   1.352       .  A
C179        N180   1.358   1_545  A
C181        C189   1.445       .  S
C181        C182   1.402       .  A
C181        C186   1.402   1_455  A
C182        C183   1.402       .  A
C182        H191   1.083       .  S
C183        C184   1.403   1_455  A
C183        H192   1.083       .  S
C184        C187   1.446       .  S
C184        C185   1.402       .  A
C185        C186   1.400       .  A
C185        H193   1.083       .  S
C186        H194   1.083       .  S
C187        C188   1.209       .  T
C189        C190   1.209       .  T
C195        C203   1.447       .  S
C195        C196   1.403       .  A
C195        C200   1.402   1_455  A
C196        C197   1.402       .  A
C196        H205   1.083       .  S
C197        C198   1.403   1_455  A
C197        H206   1.083       .  S
C198        C201   1.447       .  S
C198        C199   1.402       .  A
C199        C200   1.401       .  A
C199        H207   1.083       .  S
C200        H208   1.083       .  S
C201        C202   1.210       .  T
C203        C204   1.210       .  T
C209        C217   1.447       .  S
C209        C210   1.402       .  A
C209        C214   1.403       .  A
C210        C211   1.401       .  A
C210        H219   1.083       .  S
C211        C212   1.402       .  A
C211        H220   1.083       .  S
C212        C215   1.446       .  S
C212        C213   1.403       .  A
C213        C214   1.402       .  A
C213        H221   1.083       .  S
C214        H222   1.083       .  S
C215        C216   1.210       .  T
C217        C218   1.210       .  T
C223        C231   1.446       .  S
C223        C224   1.402       .  A
C223        C228   1.403       .  A
C224        C225   1.400       .  A
C224        H233   1.083       .  S
C225        C226   1.402       .  A
C225        H234   1.083       .  S
C226        C229   1.445       .  S
C226        C227   1.403       .  A
C227        C228   1.402       .  A
C227        H235   1.083       .  S
C228        H236   1.083       .  S
C229        C230   1.209       .  T
C231        C232   1.210       .  T
C237        C245   1.445       .  S
C237        C238   1.402       .  A
C237        C242   1.402       .  A
C238        C239   1.401       .  A
C238        H247   1.083       .  S
C239        C240   1.402       .  A
C239        H248   1.083       .  S
C240        C243   1.444       .  S
C240        C241   1.402       .  A
C241        C242   1.401       .  A
C241        H249   1.083       .  S
C242        H250   1.083       .  S
C243        C244   1.209       .  T
C245        C246   1.209       .  T
C251        C259   1.444       .  S
C251        C252   1.402       .  A
C251        C256   1.402       .  A
C252        C253   1.400       .  A
C252        H261   1.083       .  S
C253        C254   1.402       .  A
C253        H262   1.083       .  S
C254        C257   1.445       .  S
C254        C255   1.402       .  A
C255        C256   1.401       .  A
C255        H263   1.083       .  S
C256        H264   1.083       .  S
C257        C258   1.209       .  T
C259        C260   1.208       .  T
C265        N266   1.369       .  A
C265        N270   1.369       .  A
C265        C524   1.440       .  S
N266        C267   1.359       .  A
C267        N268   1.352       .  A
C267        C312   1.482       .  S
N268        C269   1.353       .  A
C269        N270   1.359       .  A
C269        C383   1.481       .  S
C271        N272   1.368       .  A
C271        N276   1.369       .  A
C271        C508   1.440       .  S
N272        C273   1.359   1_565  A
C273        N274   1.353       .  A
C273        C313   1.481       .  S
N274        C275   1.353       .  A
C275        N276   1.360   1_545  A
C275        C398   1.482       .  S
C277        N278   1.359       .  A
C277        N282   1.358       .  A
C277        C510   1.440       .  S
N278        C279   1.359       .  A
C279        N280   1.359       .  A
C279        C496   1.442       .  S
N280        C281   1.359       .  A
C281        N282   1.358       .  A
C281        C522   1.440       .  S
C283        N284   1.367       .  A
C283        N288   1.369       .  A
C283        C494   1.440   1_545  S
N284        C285   1.359       .  A
C285        N286   1.344       .  A
C285        C311   1.466       .  S
N286        C287   1.345       .  A
C287        N288   1.361       .  A
C287        C391   1.469       .  S
Zr289       O290   2.439       .  S
Zr289       O291   2.405       .  S
Zr289       O292   2.396       .  S
Zr289       O295   2.396       .  S
Zr289       O297   2.369       .  S
Zr289       O298   2.370       .  S
Zr289       O299   2.390       .  S
Zr289       O300   2.387       .  S
O290        H346   0.990       .  S
O290        H354   0.990       .  S
O291        C311   1.282   1_455  A
O292        C313   1.280       .  A
O293        C312   1.292       .  A
O294       Zr302   2.483       .  S
O294        C313   1.292       .  A
O295        C312   1.280       .  A
O296       Zr304   2.433   1_655  S
O296        C311   1.281       .  A
O297       Zr302   2.399       .  S
O297       Zr304   2.384       .  S
O298       Zr304   2.379       .  S
O298        H333   0.966       .  S
O299       Zr302   2.405       .  S
O299        H336   0.966       .  S
Zr301       O326   2.440       .  S
Zr301       O320   2.408       .  S
Zr301       O328   2.401       .  S
Zr301       O316   2.399       .  S
Zr301       O307   2.386       .  S
Zr301       O308   2.389       .  S
Zr301       O309   2.368       .  S
Zr301       O310   2.370       .  S
Zr302       O314   2.435   1_545  S
Zr303       O305   2.434       .  S
Zr303       O327   2.437       .  S
Zr303       O329   2.481       .  S
Zr303       O307   2.403       .  S
Zr303       O310   2.396       .  S
Zr304       O330   2.435   1_455  S
Zr304       O306   2.437   1_445  S
O305        H342   0.990       .  S
O306        H337   0.990       .  S
O306        H351   0.990       .  S
O308        H334   0.966       .  S
O309       Zr319   2.383       .  S
O310       Zr319   2.383       .  S
O310        H335   0.966       .  S
O314        H350   0.990       .  S
O315        C317   1.292       .  A
O316        C317   1.281       .  A
C317        C441   1.484   1_545  S
O318        H347   0.990       .  S
Zr319       O322   2.437       .  S
Zr319       O323   2.440       .  S
Zr319       O324   2.435       .  S
O320        C325   1.283       .  A
O321        H338   0.990   1_545  S
O322        H339   0.990       .  S
O323        H343   0.990       .  S
O323        H352   0.990       .  S
O324        C325   1.281       .  A
C325        C423   1.469       .  S
O326        H345   0.990       .  S
O326        H349   0.990       .  S
O327        H341   0.990       .  S
O328        C332   1.281       .  A
O329        C332   1.292       .  A
O330        H340   0.990       .  S
O331        H344   0.990       .  S
C332        C429   1.483       .  S
Zr355       O356   2.439       .  S
Zr355       O357   2.406       .  S
Zr355       O358   2.396       .  S
Zr355       O361   2.396       .  S
Zr355       O363   2.369       .  S
Zr355       O364   2.371       .  S
Zr355       O365   2.389       .  S
Zr355       O366   2.389       .  S
O356        H412   0.990       .  S
O356        H420   0.990       .  S
O357        C377   1.282       .  A
O358        C379   1.280       .  A
O359       Zr369   2.478       .  S
O359        C378   1.291       .  A
O360       Zr368   2.480       .  S
O360        C379   1.291       .  A
O361        C378   1.280       .  A
O362       Zr370   2.436       .  S
O362        C377   1.281       .  A
O363       Zr368   2.399       .  S
O363       Zr370   2.383       .  S
O364       Zr369   2.394       .  S
O364       Zr370   2.378       .  S
O364        H399   0.966       .  S
O365       Zr368   2.403       .  S
O365       Zr385   2.398       .  S
O365        H402   0.966       .  S
O366       Zr369   2.402       .  S
O366       Zr385   2.402       .  S
Zr367       O392   2.439       .  S
Zr367       O386   2.405       .  S
Zr367       O394   2.398       .  S
Zr367       O382   2.395       .  S
Zr367       O373   2.386       .  S
Zr367       O374   2.390       .  S
Zr367       O375   2.367       .  S
Zr367       O376   2.368       .  S
Zr368       O387   2.434       .  S
Zr368       O380   2.434       .  S
Zr368       O381   2.478       .  S
Zr368       O374   2.404       .  S
Zr368       O375   2.397       .  S
Zr369       O371   2.434   1_545  S
Zr369       O393   2.436       .  S
Zr369       O395   2.478       .  S
Zr369       O373   2.401       .  S
Zr369       O376   2.394       .  S
Zr370       O396   2.436       .  S
Zr370       O397   2.436       .  S
Zr370       O372   2.436       .  S
Zr370       O373   2.399       .  S
Zr370       O374   2.397       .  S
O371        H408   0.990       .  S
O372        H403   0.990       .  S
O372        H417   0.990       .  S
O374        H400   0.966       .  S
O375       Zr385   2.383       .  S
O376       Zr385   2.381       .  S
O376        H401   0.966       .  S
C377        C425   1.467       .  S
C378        C443   1.480       .  S
C379        C431   1.481       .  S
O380        H416   0.990       .  S
O381        C383   1.291       .  A
O382        C383   1.280       .  A
O384       Zr385   2.440   1_655  S
O384        H413   0.990       .  S
Zr385       O388   2.437   1_455  S
Zr385       O389   2.439   1_445  S
Zr385       O390   2.438   1_455  S
O386        C391   1.282   1_455  A
O387        H404   0.990       .  S
O387        H419   0.990       .  S
O388        H405   0.990       .  S
O389        H409   0.990       .  S
O389        H418   0.990       .  S
O390        C391   1.281       .  A
O392        H411   0.990       .  S
O392        H415   0.990       .  S
O393        H407   0.990   1_545  S
O393        H414   0.990       .  S
O394        C398   1.280       .  A
O395        C398   1.291       .  A
O396        H406   0.990       .  S
O397        H410   0.990       .  S
C421        N422   1.369       .  A
C421        N426   1.368       .  A
C421        C480   1.442       .  S
N422        C423   1.361       .  A
C423        N424   1.344       .  A
N424        C425   1.344       .  A
C425        N426   1.359       .  A
C427        N428   1.369       .  A
C427        N432   1.369       .  A
C427        C468   1.442       .  S
N428        C429   1.360       .  A
C429        N430   1.352       .  A
N430        C431   1.353       .  A
C431        N432   1.360       .  A
C433        N434   1.359       .  A
C433        N438   1.358       .  A
C433        C466   1.442       .  S
N434        C435   1.360       .  A
C435        N436   1.360       .  A
C435        C482   1.443       .  S
N436        C437   1.360       .  A
C437        N438   1.358       .  A
C437        C452   1.442       .  S
C439        N440   1.371       .  A
C439        N444   1.368       .  A
C439        C454   1.441       .  S
N440        C441   1.361       .  A
C441        N442   1.353   1_565  A
N442        C443   1.352       .  A
C443        N444   1.358   1_545  A
C445        C453   1.445       .  S
C445        C446   1.402       .  A
C445        C450   1.402   1_455  A
C446        C447   1.402       .  A
C446        H455   1.083       .  S
C447        C448   1.403   1_455  A
C447        H456   1.083       .  S
C448        C451   1.446       .  S
C448        C449   1.402       .  A
C449        C450   1.400       .  A
C449        H457   1.083       .  S
C450        H458   1.083       .  S
C451        C452   1.209       .  T
C453        C454   1.209       .  T
C459        C467   1.447       .  S
C459        C460   1.403       .  A
C459        C464   1.402   1_455  A
C460        C461   1.402       .  A
C460        H469   1.083       .  S
C461        C462   1.403   1_455  A
C461        H470   1.083       .  S
C462        C465   1.447       .  S
C462        C463   1.402       .  A
C463        C464   1.401       .  A
C463        H471   1.083       .  S
C464        H472   1.083       .  S
C465        C466   1.210       .  T
C467        C468   1.210       .  T
C473        C481   1.447       .  S
C473        C474   1.402       .  A
C473        C478   1.403       .  A
C474        C475   1.401       .  A
C474        H483   1.083       .  S
C475        C476   1.402       .  A
C475        H484   1.083       .  S
C476        C479   1.446       .  S
C476        C477   1.403       .  A
C477        C478   1.402       .  A
C477        H485   1.083       .  S
C478        H486   1.083       .  S
C479        C480   1.210       .  T
C481        C482   1.210       .  T
C487        C495   1.446       .  S
C487        C488   1.402       .  A
C487        C492   1.403       .  A
C488        C489   1.400       .  A
C488        H497   1.083       .  S
C489        C490   1.402       .  A
C489        H498   1.083       .  S
C490        C493   1.445       .  S
C490        C491   1.403       .  A
C491        C492   1.402       .  A
C491        H499   1.083       .  S
C492        H500   1.083       .  S
C493        C494   1.209       .  T
C495        C496   1.210       .  T
C501        C509   1.445       .  S
C501        C502   1.402       .  A
C501        C506   1.402       .  A
C502        C503   1.401       .  A
C502        H511   1.083       .  S
C503        C504   1.402       .  A
C503        H512   1.083       .  S
C504        C507   1.444       .  S
C504        C505   1.402       .  A
C505        C506   1.401       .  A
C505        H513   1.083       .  S
C506        H514   1.083       .  S
C507        C508   1.209       .  T
C509        C510   1.209       .  T
C515        C523   1.444       .  S
C515        C516   1.402       .  A
C515        C520   1.402       .  A
C516        C517   1.400       .  A
C516        H525   1.083       .  S
C517        C518   1.402       .  A
C517        H526   1.083       .  S
C518        C521   1.445       .  S
C518        C519   1.402       .  A
C519        C520   1.401       .  A
C519        H527   1.083       .  S
C520        H528   1.083       .  S
C521        C522   1.209       .  T
C523        C524   1.208       .  T
