geometry optimzed in LAMMPS
_audit_creation_date              2020-12-01 
_audit_creation_method            'lammps2cif' 
_symmetry_space_group_name_H-M    'P1' 
_symmetry_Int_Tables_number       1 
_symmetry_cell_setting            triclinic 
loop_ 
_symmetry_equiv_pos_as_xyz 
  x,y,z 
_cell_length_a                    41.78163538 
_cell_length_b                    41.74591402736709 
_cell_length_c                    34.522635273299336 
_cell_angle_alpha                 90.02056866543285 
_cell_angle_beta                  90.06920352083421 
_cell_angle_gamma                 81.398498301763 
loop_ 
_atom_site_label 
_atom_site_type_symbol 
_atom_site_fract_x 
_atom_site_fract_y 
_atom_site_fract_z 
_atom_site_charge 
N1          N  0.05529092  0.49229668  0.42692420    -0.06700
N2          N  0.07431715  0.00339906  0.40125010    -0.58800
N3          N  0.02419536  0.42636097  0.45428601    -0.06400
N4          N  0.02615095  0.39507099  0.44703048    -0.61000
N5          N  0.00698398  0.44333131  0.42733874    -0.06000
N6          N  0.49700634  0.42395188  0.40119253    -0.58800
N7          N  0.07264631  0.47570722  0.45405804    -0.05700
N8          N  0.10385601  0.47540544  0.44746641    -0.61300
C9          C  0.10457419  0.49290457  0.41450146     0.95500
C10         C  0.50895510  0.39388406  0.41391082     0.95200
N11         N  0.00752912  0.44366234  0.07283436    -0.06900
N12         N  0.49755661  0.42452068  0.09920020    -0.59400
N13         N  0.07276271  0.47564483  0.04531701    -0.05000
N14         N  0.10398276  0.47408498  0.05262613    -0.60700
N15         N  0.05560690  0.49249489  0.07235473    -0.06900
N16         N  0.07474728  0.00256771  0.09866027    -0.59700
N17         N  0.02428962  0.42648242  0.04572313    -0.04700
N18         N  0.02585758  0.39522492  0.05306859    -0.60800
Mn19       Mn  0.04935928  0.45015599  0.99983261     1.18400
C20         C  0.50898437  0.39435355  0.08646301     0.97500
C21         C  0.10486240  0.49109571  0.08592307     0.98200
N22         N  0.44878023  0.00090423  0.42736588    -0.07000
N23         N  0.42913037  0.49232194  0.40051728    -0.63300
N24         N  0.48031268  0.06652328  0.45446482    -0.05800
N25         N  0.47827088  0.09782354  0.44735173    -0.63900
N26         N  0.49710415  0.04963169  0.42717485    -0.06500
N27         N  0.00665669  0.06908611  0.40084701    -0.63500
N28         N  0.43203645  0.01737144  0.45502259    -0.05400
N29         N  0.40075794  0.02005472  0.44776363    -0.64200
Mn30       Mn  0.00205031  0.49649000  0.42596872     1.10700
C31         C  0.39921156  0.00414990  0.41387127     0.98800
C32         C  0.99495520  0.09911020  0.41394661     0.98800
N33         N  0.49772555  0.04990746  0.07260041    -0.06500
N34         N  0.00724682  0.06946156  0.09888787    -0.61800
N35         N  0.43238359  0.01726628  0.04581799    -0.05800
N36         N  0.40118648  0.01889562  0.05319414    -0.58600
N37         N  0.44962764  0.00100954  0.07325751    -0.07100
N38         N  0.43055419  0.49158517  0.10009135    -0.61400
N39         N  0.48061364  0.06669272  0.04546156    -0.06100
N40         N  0.47829587  0.09800633  0.05262011    -0.58600
Mn41       Mn  0.50266627  0.99675515  0.07391098     1.20200
Mn42       Mn  0.45556779  0.04273068  0.50018606     1.10100
Cl43       Cl  0.00241975  0.99651529  0.99995640    -0.86600
C44         C  0.99517909  0.09943477  0.08589177     0.95800
C45         C  0.40039503  0.00270170  0.08706075     0.95600
C46         C  0.00093587  0.27513495  0.16943387     0.79600
N47         N  0.00134139  0.24665566  0.15027708    -0.78700
C48         C  0.00196192  0.21833636  0.16979855     0.82100
N49         N  0.00204048  0.21867869  0.20912898    -0.78600
C50         C  0.00147662  0.24694214  0.22879115     0.82200
N51         N  0.00091950  0.27511373  0.20886245    -0.80400
C52         C  0.00189744  0.27463605  0.33086361     0.79600
N53         N  0.00243893  0.24611543  0.34993130    -0.78700
C54         C  0.00266358  0.21790746  0.33025554     0.82100
N55         N  0.00233734  0.21845115  0.29090755    -0.78600
C56         C  0.00167542  0.24681132  0.27139590     0.82200
N57         N  0.00135603  0.27486563  0.29147269    -0.80400
C58         C  0.22348427  0.50081028  0.16877650     0.79600
N59         N  0.22308146  0.50285627  0.20808623    -0.78700
C60         C  0.25101946  0.50307893  0.22817328     0.82100
N61         N  0.27952671  0.50132563  0.20872203    -0.78100
C62         C  0.28026534  0.49942260  0.16939127     0.82200
N63         N  0.25212247  0.49914249  0.14983958    -0.80400
C64         C  0.22236100  0.50481092  0.33007905     0.79600
N65         N  0.22247145  0.50485375  0.29064142    -0.78700
C66         C  0.25065036  0.50419377  0.27077274     0.82100
N67         N  0.27885035  0.50338904  0.29050125    -0.78600
C68         C  0.27925756  0.50326913  0.32981371     0.82200
N69         N  0.25090307  0.50396896  0.34934334    -0.80400
C70         C  0.49277203  0.18819022  0.39087769    -0.21900
C71         C  0.00224315  0.18717490  0.35176056    -0.10000
C72         C  0.01055986  0.15674335  0.33379188     0.28900
C73         C  0.00877042  0.12823518  0.35445424    -0.21900
C74         C  0.99838286  0.12940967  0.39318402    -0.10000
C75         C  0.49066561  0.15973044  0.41135255     0.28900
F76         F  0.48105866  0.16201916  0.44892629    -0.20500
H77         H  0.48631856  0.21114917  0.40561661     0.17300
H78         H  0.01501030  0.10518690  0.33984283     0.17300
F79         F  0.02058142  0.15436090  0.29637592    -0.20500
C80         C  0.99008157  0.33504877  0.33608043    -0.21900
C81         C  0.00242661  0.30506340  0.35283446    -0.10000
C82         C  0.51575225  0.30460018  0.39037751     0.28900
C83         C  0.51730128  0.33354668  0.41012137    -0.21900
C84         C  0.00543112  0.36353992  0.39316046    -0.10000
C85         C  0.99131346  0.36401693  0.35604154     0.28900
F86         F  0.97919207  0.39239217  0.33861045    -0.20500
H87         H  0.97941546  0.33610773  0.30740956     0.17300
H88         H  0.52821432  0.33243604  0.43865573     0.17300
F89         F  0.52840211  0.27629542  0.40761689    -0.20500
C90         C  0.00966841  0.12869173  0.14504765    -0.21900
C91         C  0.99838321  0.12981404  0.10665337    -0.10000
C92         C  0.48957742  0.16015180  0.08882527     0.28900
C93         C  0.49135719  0.18865450  0.10938298    -0.21900
C94         C  0.00172628  0.18764532  0.14818217    -0.10000
C95         C  0.01128159  0.15723370  0.16573382     0.28900
F96         F  0.02246703  0.15492135  0.20271252    -0.20500
H97         H  0.01683852  0.10564758  0.15935954     0.17300
H98         H  0.48400979  0.21162104  0.09496924     0.17300
F99         F  0.47924724  0.16242159  0.05149722    -0.20500
C100        C  0.01150228  0.33432224  0.08824188    -0.21900
C101        C  0.00504404  0.36422561  0.10736964    -0.10000
C102        C  0.99577372  0.36477742  0.14660203     0.28900
C103        C  0.99419326  0.33581716  0.16642566    -0.21900
C104        C  0.00128953  0.30574956  0.14751190    -0.10000
C105        C  0.00942213  0.30540851  0.10781939     0.28900
F106        F  0.01624027  0.27718688  0.08789099    -0.20500
H107        H  0.01837283  0.33325555  0.05797092     0.17300
H108        H  0.98754833  0.33699382  0.19676223     0.17300
F109        F  0.98911698  0.39316108  0.16624486    -0.20500
C110        C  0.30988708  0.50827354  0.39133897    -0.21900
C111        C  0.31027554  0.50223332  0.35125746    -0.10000
C112        C  0.34047027  0.49543689  0.33231945     0.28900
C113        C  0.36928210  0.49529926  0.35305303    -0.21900
C114        C  0.36870106  0.50221570  0.39283881    -0.10000
C115        C  0.33867941  0.50839217  0.41192368     0.28900
F116        F  0.33703804  0.51441314  0.45057063    -0.20500
H117        H  0.28719525  0.51337051  0.40687874     0.17300
H118        H  0.39209603  0.49041013  0.33772437     0.17300
F119        F  0.34239292  0.48885816  0.29381000    -0.20500
C120        C  0.13304505  0.00725705  0.35471622    -0.21900
C121        C  0.13455295  0.49802987  0.39388997    -0.10000
C122        C  0.16488604  0.49294096  0.41242656     0.28900
C123        C  0.19307554  0.49602654  0.39174729    -0.21900
C124        C  0.19179675  0.50398551  0.35206748    -0.10000
C125        C  0.16123390  0.51007941  0.33389922     0.28900
F126        F  0.15838093  0.01863152  0.29598321    -0.20500
H127        H  0.10998717  0.01158134  0.33979155     0.17300
H128        H  0.21605877  0.49145987  0.40680018     0.17300
F129        F  0.16741652  0.48499187  0.45054633    -0.20500
C130        C  0.34103693  0.50166758  0.08770517    -0.21900
C131        C  0.37028237  0.49948359  0.10812489    -0.10000
C132        C  0.37007231  0.49562433  0.14858988     0.28900
C133        C  0.34084976  0.49517341  0.16822239    -0.21900
C134        C  0.31131141  0.49816329  0.14793126    -0.10000
C135        C  0.31189557  0.50074199  0.10714405     0.28900
F136        F  0.28436406  0.50314747  0.08577823    -0.20500
H137        H  0.34068097  0.00430906  0.05647922     0.17300
H138        H  0.34139013  0.49289789  0.19947280     0.17300
F139        F  0.39786603  0.49366504  0.16942552    -0.20500
C140        C  0.16300970  0.50885911  0.16481683    -0.21900
C141        C  0.19313589  0.49965395  0.14681548    -0.10000
C142        C  0.19376235  0.98876675  0.10808566     0.28900
C143        C  0.16495300  0.98642158  0.08849318    -0.21900
C144        C  0.13493959  0.49514049  0.10672270    -0.10000
C145        C  0.13418382  0.50683113  0.14502011     0.28900
F146        F  0.10570086  0.51563252  0.16379045    -0.20500
H147        H  0.16167736  0.51757183  0.19441357     0.17300
H148        H  0.16619639  0.97751875  0.05897274     0.17300
F149        F  0.22211220  0.97946657  0.08923986    -0.20500
N150        N  0.05529094  0.49229665  0.92692423    -0.06700
N151        N  0.07431715  0.00339910  0.90125015    -0.58800
N152        N  0.02419533  0.42636094  0.95428595    -0.06400
N153        N  0.02615094  0.39507096  0.94703038    -0.61000
N154        N  0.00698395  0.44333129  0.92733868    -0.06000
N155        N  0.49700631  0.42395186  0.90119247    -0.58800
N156        N  0.07264632  0.47570719  0.95405808    -0.05700
N157        N  0.10385603  0.47540539  0.94746645    -0.61300
C158        C  0.10457421  0.49290452  0.91450150     0.95500
C159        C  0.50895509  0.39388404  0.91391073     0.95200
N160        N  0.00752917  0.44366235  0.57283444    -0.06900
N161        N  0.49755661  0.42452067  0.59920023    -0.59400
N162        N  0.07276272  0.47564492  0.54531699    -0.05000
N163        N  0.10398278  0.47408510  0.55262607    -0.60700
N164        N  0.05560692  0.49249489  0.57235478    -0.06900
N165        N  0.07474723  0.00256762  0.59866039    -0.59700
N166        N  0.02428964  0.42648245  0.54572318    -0.04700
N167        N  0.02585753  0.39522494  0.55306856    -0.60800
Mn168      Mn  0.04935930  0.45015603  0.49983262     1.18400
C169        C  0.50898432  0.39435354  0.58646297     0.97500
C170        C  0.10486241  0.49109572  0.58592309     0.98200
N171        N  0.44878021  0.00090417  0.92736583    -0.07000
N172        N  0.42913041  0.49232201  0.90051714    -0.63300
N173        N  0.48031261  0.06652325  0.95446474    -0.05800
N174        N  0.47827082  0.09782351  0.94735167    -0.63900
N175        N  0.49710414  0.04963167  0.92717481    -0.06500
N176        N  0.00665673  0.06908612  0.90084701    -0.63500
N177        N  0.43203643  0.01737136  0.95502255    -0.05400
N178        N  0.40075792  0.02005465  0.94776356    -0.64200
Mn179      Mn  0.00205033  0.49648998  0.92596866     1.10700
C180        C  0.39921154  0.00414982  0.91387123     0.98800
C181        C  0.99495516  0.09911020  0.91394659     0.98800
N182        N  0.49772553  0.04990744  0.57260051    -0.06500
N183        N  0.00724681  0.06946153  0.59888796    -0.61800
N184        N  0.43238359  0.01726630  0.54581803    -0.05800
N185        N  0.40118647  0.01889568  0.55319420    -0.58600
N186        N  0.44962763  0.00100951  0.57325752    -0.07100
N187        N  0.43055422  0.49158508  0.60009137    -0.61400
N188        N  0.48061365  0.06669270  0.54546165    -0.06100
N189        N  0.47829591  0.09800631  0.55262018    -0.58600
Mn190      Mn  0.50266625  0.99675512  0.57391102     1.20200
Mn191      Mn  0.45556778  0.04273064  0.00018600     1.10100
Cl192      Cl  0.00241974  0.99651530  0.49995641    -0.86600
C193        C  0.99517909  0.09943474  0.58589186     0.95800
C194        C  0.40039501  0.00270171  0.58706076     0.95600
C195        C  0.00093583  0.27513493  0.66943386     0.79600
N196        N  0.00134136  0.24665564  0.65027709    -0.78700
C197        C  0.00196189  0.21833635  0.66979857     0.82100
N198        N  0.00204044  0.21867868  0.70912899    -0.78600
C199        C  0.00147658  0.24694213  0.72879115     0.82200
N200        N  0.00091946  0.27511372  0.70886244    -0.80400
C201        C  0.00189740  0.27463603  0.83086356     0.79600
N202        N  0.00243889  0.24611541  0.84993126    -0.78700
C203        C  0.00266355  0.21790744  0.83025550     0.82100
N204        N  0.00233732  0.21845113  0.79090751    -0.78600
C205        C  0.00167539  0.24681130  0.77139587     0.82200
N206        N  0.00135599  0.27486561  0.79147265    -0.80400
C207        C  0.22348426  0.50081029  0.66877653     0.79600
N208        N  0.22308144  0.50285636  0.70808626    -0.78700
C209        C  0.25101945  0.50307896  0.72817331     0.82100
N210        N  0.27952671  0.50132557  0.70872206    -0.78100
C211        C  0.28026535  0.49942249  0.66939130     0.82200
N212        N  0.25212247  0.49914242  0.64983962    -0.80400
C213        C  0.22236100  0.50481099  0.83007909     0.79600
N214        N  0.22247144  0.50485381  0.79064146    -0.78700
C215        C  0.25065034  0.50419385  0.77077277     0.82100
N216        N  0.27885034  0.50338912  0.79050126    -0.78600
C217        C  0.27925756  0.50326919  0.82981371     0.82200
N218        N  0.25090308  0.50396902  0.84934336    -0.80400
C219        C  0.49277207  0.18819019  0.89087766    -0.21900
C220        C  0.00224313  0.18717488  0.85176052    -0.10000
C221        C  0.01055985  0.15674333  0.83379185     0.28900
C222        C  0.00877039  0.12823517  0.85445423    -0.21900
C223        C  0.99838282  0.12940968  0.89318401    -0.10000
C224        C  0.49066571  0.15973042  0.91135257     0.28900
F225        F  0.48105884  0.16201915  0.94892635    -0.20500
H226        H  0.48631860  0.21114915  0.90561657     0.17300
H227        H  0.01501025  0.10518688  0.83984283     0.17300
F228        F  0.02058144  0.15436087  0.79637590    -0.20500
C229        C  0.99008156  0.33504873  0.83608036    -0.21900
C230        C  0.00242658  0.30506337  0.85283440    -0.10000
C231        C  0.51575227  0.30460015  0.89037742     0.28900
C232        C  0.51730131  0.33354665  0.91012126    -0.21900
C233        C  0.00543112  0.36353989  0.89316037    -0.10000
C234        C  0.99131345  0.36401689  0.85604144     0.28900
F235        F  0.97919206  0.39239212  0.83861034    -0.20500
H236        H  0.97941544  0.33610768  0.80740949     0.17300
H237        H  0.52821437  0.33243602  0.93865564     0.17300
F238        F  0.52840213  0.27629538  0.90761678    -0.20500
C239        C  0.00966840  0.12869172  0.64504773    -0.21900
C240        C  0.99838321  0.12981402  0.60665344    -0.10000
C241        C  0.48957745  0.16015177  0.58882531     0.28900
C242        C  0.49135722  0.18865450  0.60938300    -0.21900
C243        C  0.00172626  0.18764531  0.64818222    -0.10000
C244        C  0.01128156  0.15723369  0.66573388     0.28900
F245        F  0.02246698  0.15492134  0.70271259    -0.20500
H246        H  0.01683850  0.10564759  0.65935963     0.17300
H247        H  0.48400982  0.21162101  0.59496928     0.17300
F248        F  0.47924725  0.16242156  0.55149727    -0.20500
C249        C  0.01150226  0.33432220  0.58824187    -0.21900
C250        C  0.00504402  0.36422558  0.60736960    -0.10000
C251        C  0.99577369  0.36477740  0.64660200     0.28900
C252        C  0.99419323  0.33581714  0.66642562    -0.21900
C253        C  0.00128950  0.30574954  0.64751188    -0.10000
C254        C  0.00942212  0.30540848  0.60781938     0.28900
F255        F  0.01624028  0.27718684  0.58789101    -0.20500
H256        H  0.01837283  0.33325549  0.55797087     0.17300
H257        H  0.98754829  0.33699381  0.69676220     0.17300
F258        F  0.98911693  0.39316105  0.66624485    -0.20500
C259        C  0.30988711  0.50827360  0.89133894    -0.21900
C260        C  0.31027555  0.50223334  0.85125743    -0.10000
C261        C  0.34047027  0.49543688  0.83231941     0.28900
C262        C  0.36928212  0.49529926  0.85305296    -0.21900
C263        C  0.36870109  0.50221572  0.89283875    -0.10000
C264        C  0.33867945  0.50839223  0.91192363     0.28900
F265        F  0.33703807  0.51441323  0.95057058    -0.20500
H266        H  0.28719529  0.51337061  0.90687869     0.17300
H267        H  0.39209604  0.49041010  0.83772431     0.17300
F268        F  0.34239289  0.48885803  0.79381000    -0.20500
C269        C  0.13304505  0.00725713  0.85471625    -0.21900
C270        C  0.13455297  0.49802984  0.89389004    -0.10000
C271        C  0.16488606  0.49294089  0.91242662     0.28900
C272        C  0.19307556  0.49602655  0.89174735    -0.21900
C273        C  0.19179675  0.50398558  0.85206755    -0.10000
C274        C  0.16123391  0.51007946  0.83389930     0.28900
F275        F  0.15838095  0.01863145  0.79598318    -0.20500
H276        H  0.10998716  0.01158140  0.83979156     0.17300
H277        H  0.21605879  0.49145988  0.90680022     0.17300
F278        F  0.16741657  0.48499171  0.95054638    -0.20500
C279        C  0.34103694  0.50166754  0.58770519    -0.21900
C280        C  0.37028238  0.49948348  0.60812490    -0.10000
C281        C  0.37007232  0.49562427  0.64858989     0.28900
C282        C  0.34084977  0.49517333  0.66822242    -0.21900
C283        C  0.31131143  0.49816317  0.64793128    -0.10000
C284        C  0.31189559  0.50074192  0.60714407     0.28900
F285        F  0.28436409  0.50314732  0.58577827    -0.20500
H286        H  0.34068094  0.00430918  0.55647919     0.17300
H287        H  0.34139014  0.49289783  0.69947281     0.17300
F288        F  0.39786603  0.49366507  0.66942553    -0.20500
C289        C  0.16300969  0.50885921  0.66481681    -0.21900
C290        C  0.19313588  0.49965397  0.64681551    -0.10000
C291        C  0.19376229  0.98876688  0.60808566     0.28900
C292        C  0.16495294  0.98642166  0.58849324    -0.21900
C293        C  0.13493960  0.49514049  0.60672273    -0.10000
C294        C  0.13418382  0.50683120  0.64502012     0.28900
F295        F  0.10570085  0.51563260  0.66379044    -0.20500
H296        H  0.16167735  0.51757202  0.69441355     0.17300
H297        H  0.16619632  0.97751887  0.55897275     0.17300
F298        F  0.22211213  0.97946686  0.58923978    -0.20500
N299        N  0.05529090  0.99229668  0.42692422    -0.06700
N300        N  0.07431716  0.50339906  0.40125007    -0.58800
N301        N  0.02419531  0.92636096  0.45428603    -0.06400
N302        N  0.02615086  0.89507097  0.44703054    -0.61000
N303        N  0.00698399  0.94333129  0.42733871    -0.06000
N304        N  0.49700623  0.92395188  0.40119255    -0.58800
N305        N  0.07264629  0.97570719  0.45405804    -0.05700
N306        N  0.10385599  0.97540536  0.44746639    -0.61300
C307        C  0.10457417  0.99290449  0.41450145     0.95500
C308        C  0.50895499  0.89388406  0.41391084     0.95200
N309        N  0.00752912  0.94366233  0.07283438    -0.06900
N310        N  0.49755665  0.92452067  0.09920026    -0.59400
N311        N  0.07276271  0.97564484  0.04531699    -0.05000
N312        N  0.10398277  0.97408502  0.05262608    -0.60700
N313        N  0.05560691  0.99249487  0.07235473    -0.06900
N314        N  0.07474727  0.50256775  0.09866026    -0.59700
N315        N  0.02428967  0.92648241  0.04572318    -0.04700
N316        N  0.02585765  0.89522491  0.05306864    -0.60800
Mn317      Mn  0.04935931  0.95015598  0.99983263     1.18400
C318        C  0.50898436  0.89435354  0.08646301     0.97500
C319        C  0.10486240  0.99109571  0.08592304     0.98200
N320        N  0.44878022  0.50090419  0.42736593    -0.07000
N321        N  0.42913038  0.99232199  0.40051723    -0.63300
N322        N  0.48031258  0.56652330  0.45446478    -0.05800
N323        N  0.47827082  0.59782357  0.44735171    -0.63900
N324        N  0.49710407  0.54963171  0.42717482    -0.06500
N325        N  0.00665673  0.56908612  0.40084705    -0.63500
N326        N  0.43203644  0.51737142  0.45502262    -0.05400
N327        N  0.40075793  0.52005474  0.44776363    -0.64200
Mn328      Mn  0.00205032  0.99648998  0.42596870     1.10700
C329        C  0.39921155  0.50414989  0.41387130     0.98800
C330        C  0.99495518  0.59911022  0.41394661     0.98800
N331        N  0.49772549  0.54990745  0.07260046    -0.06500
N332        N  0.00724679  0.56946153  0.09888791    -0.61800
N333        N  0.43238358  0.51726628  0.04581796    -0.05800
N334        N  0.40118647  0.51889568  0.05319415    -0.58600
N335        N  0.44962762  0.50100952  0.07325747    -0.07100
N336        N  0.43055421  0.99158515  0.10009136    -0.61400
N337        N  0.48061364  0.56669272  0.04546156    -0.06100
N338        N  0.47829592  0.59800633  0.05262009    -0.58600
Mn339      Mn  0.50266623  0.49675514  0.07391098     1.20200
Mn340      Mn  0.45556776  0.54273069  0.50018607     1.10100
Cl341      Cl  0.00241973  0.49651529  0.99995639    -0.86600
C342        C  0.99517910  0.59943474  0.08589180     0.95800
C343        C  0.40039502  0.50270177  0.08706075     0.95600
C344        C  0.00093586  0.77513491  0.16943386     0.79600
N345        N  0.00134141  0.74665561  0.15027709    -0.78700
C346        C  0.00196193  0.71833633  0.16979859     0.82100
N347        N  0.00204045  0.71867867  0.20912901    -0.78600
C348        C  0.00147662  0.74694213  0.22879117     0.82200
N349        N  0.00091950  0.77511371  0.20886244    -0.80400
C350        C  0.00189741  0.77463606  0.33086362     0.79600
N351        N  0.00243888  0.74611544  0.34993132    -0.78700
C352        C  0.00266359  0.71790747  0.33025556     0.82100
N353        N  0.00233742  0.71845115  0.29090756    -0.78600
C354        C  0.00167546  0.74681132  0.27139592     0.82200
N355        N  0.00135601  0.77486564  0.29147270    -0.80400
C356        C  0.22348424  0.00081030  0.16877648     0.79600
N357        N  0.22308143  0.00285627  0.20808622    -0.78700
C358        C  0.25101943  0.00307891  0.22817328     0.82100
N359        N  0.27952668  0.00132561  0.20872203    -0.78100
C360        C  0.28026531  0.99942262  0.16939127     0.82200
N361        N  0.25212243  0.99914256  0.14983957    -0.80400
C362        C  0.22236096  0.00481093  0.33007907     0.79600
N363        N  0.22247142  0.00485371  0.29064144    -0.78700
C364        C  0.25065032  0.00419374  0.27077276     0.82100
N365        N  0.27885031  0.00338906  0.29050127    -0.78600
C366        C  0.27925752  0.00326919  0.32981373     0.82200
N367        N  0.25090303  0.00396900  0.34934336    -0.80400
C368        C  0.49277200  0.68819024  0.39087769    -0.21900
C369        C  0.00224318  0.68717491  0.35176057    -0.10000
C370        C  0.01055988  0.65674337  0.33379189     0.28900
C371        C  0.00877038  0.62823521  0.35445422    -0.21900
C372        C  0.99838283  0.62940969  0.39318401    -0.10000
C373        C  0.49066564  0.65973046  0.41135258     0.28900
F374        F  0.48105875  0.66201917  0.44892634    -0.20500
H375        H  0.48631850  0.71114919  0.40561659     0.17300
H376        H  0.01501020  0.60518693  0.33984279     0.17300
F377        F  0.02058147  0.65436091  0.29637594    -0.20500
C378        C  0.99008159  0.83504876  0.33608043    -0.21900
C379        C  0.00242657  0.80506339  0.35283448    -0.10000
C380        C  0.51575231  0.80460016  0.39037748     0.28900
C381        C  0.51730133  0.83354667  0.41012133    -0.21900
C382        C  0.00543110  0.86353990  0.39316047    -0.10000
C383        C  0.99131350  0.86401692  0.35604151     0.28900
F384        F  0.97919217  0.89239217  0.33861040    -0.20500
H385        H  0.97941552  0.83610772  0.30740952     0.17300
H386        H  0.52821439  0.83243604  0.43865568     0.17300
F387        F  0.52840221  0.77629541  0.40761684    -0.20500
C388        C  0.00966848  0.62869170  0.14504767    -0.21900
C389        C  0.99838325  0.62981400  0.10665339    -0.10000
C390        C  0.48957749  0.66015176  0.08882529     0.28900
C391        C  0.49135723  0.68865447  0.10938301    -0.21900
C392        C  0.00172629  0.68764529  0.14818221    -0.10000
C393        C  0.01128160  0.65723367  0.16573385     0.28900
F394        F  0.02246703  0.65492132  0.20271255    -0.20500
H395        H  0.01683861  0.60564756  0.15935955     0.17300
H396        H  0.48400988  0.71162100  0.09496924     0.17300
F397        F  0.47924736  0.66242155  0.05149723    -0.20500
C398        C  0.01150233  0.83432220  0.08824187    -0.21900
C399        C  0.00504408  0.86422557  0.10736964    -0.10000
C400        C  0.99577379  0.86477738  0.14660204     0.28900
C401        C  0.99419333  0.83581711  0.16642566    -0.21900
C402        C  0.00128957  0.80574951  0.14751188    -0.10000
C403        C  0.00942220  0.80540847  0.10781939     0.28900
F404        F  0.01624035  0.77718685  0.08789098    -0.20500
H405        H  0.01837287  0.83325551  0.05797090     0.17300
H406        H  0.98754843  0.83699376  0.19676222     0.17300
F407        F  0.98911708  0.89316102  0.16624491    -0.20500
C408        C  0.30988708  0.00827364  0.39133898    -0.21900
C409        C  0.31027551  0.00223338  0.35125747    -0.10000
C410        C  0.34047025  0.99543684  0.33231946     0.28900
C411        C  0.36928208  0.99529923  0.35305302    -0.21900
C412        C  0.36870107  0.00221573  0.39283878    -0.10000
C413        C  0.33867943  0.00839221  0.41192367     0.28900
F414        F  0.33703807  0.01441315  0.45057063    -0.20500
H415        H  0.28719527  0.01337067  0.40687873     0.17300
H416        H  0.39209603  0.99041003  0.33772435     0.17300
F417        F  0.34239287  0.98885797  0.29381005    -0.20500
C418        C  0.13304507  0.50725710  0.35471620    -0.21900
C419        C  0.13455293  0.99802979  0.39388999    -0.10000
C420        C  0.16488602  0.99294087  0.41242658     0.28900
C421        C  0.19307552  0.99602652  0.39174733    -0.21900
C422        C  0.19179672  0.00398552  0.35206752    -0.10000
C423        C  0.16123388  0.01007942  0.33389927     0.28900
F424        F  0.15838096  0.51863139  0.29598312    -0.20500
H425        H  0.10998719  0.51158140  0.33979153     0.17300
H426        H  0.21605875  0.99145987  0.40680022     0.17300
F427        F  0.16741651  0.98499173  0.45054634    -0.20500
C428        C  0.34103694  0.00166749  0.08770517    -0.21900
C429        C  0.37028238  0.99948349  0.10812488    -0.10000
C430        C  0.37007231  0.99562424  0.14858987     0.28900
C431        C  0.34084976  0.99517332  0.16822240    -0.21900
C432        C  0.31131140  0.99816325  0.14793127    -0.10000
C433        C  0.31189558  0.00074193  0.10714406     0.28900
F434        F  0.28436407  0.00314742  0.08577825    -0.20500
H435        H  0.34068098  0.50430915  0.05647922     0.17300
H436        H  0.34139013  0.99289781  0.19947280     0.17300
F437        F  0.39786602  0.99366504  0.16942552    -0.20500
C438        C  0.16300968  0.00885914  0.16481678    -0.21900
C439        C  0.19313587  0.99965393  0.14681546    -0.10000
C440        C  0.19376236  0.48876684  0.10808565     0.28900
C441        C  0.16495301  0.48642168  0.08849318    -0.21900
C442        C  0.13493958  0.99514047  0.10672269    -0.10000
C443        C  0.13418380  0.00683117  0.14502006     0.28900
F444        F  0.10570084  0.01563265  0.16379034    -0.20500
H445        H  0.16167734  0.01757190  0.19441351     0.17300
H446        H  0.16619642  0.47751892  0.05897270     0.17300
F447        F  0.22211220  0.47946675  0.08923979    -0.20500
N448        N  0.05529092  0.99229667  0.92692425    -0.06700
N449        N  0.07431720  0.50339906  0.90125013    -0.58800
N450        N  0.02419539  0.92636092  0.95428596    -0.06400
N451        N  0.02615103  0.89507094  0.94703037    -0.61000
N452        N  0.00698402  0.94333127  0.92733869    -0.06000
N453        N  0.49700624  0.92395185  0.90119249    -0.58800
N454        N  0.07264632  0.97570717  0.95405806    -0.05700
N455        N  0.10385602  0.97540538  0.94746640    -0.61300
C456        C  0.10457417  0.99290457  0.91450150     0.95500
C457        C  0.50895500  0.89388403  0.91391076     0.95200
N458        N  0.00752914  0.94366233  0.57283440    -0.06900
N459        N  0.49755665  0.92452064  0.59920025    -0.59400
N460        N  0.07276269  0.97564491  0.54531698    -0.05000
N461        N  0.10398274  0.97408508  0.55262610    -0.60700
N462        N  0.05560688  0.99249485  0.57235479    -0.06900
N463        N  0.07474729  0.50256770  0.59866034    -0.59700
N464        N  0.02428967  0.92648243  0.54572318    -0.04700
N465        N  0.02585763  0.89522492  0.55306860    -0.60800
Mn466      Mn  0.04935927  0.95015603  0.49983262     1.18400
C467        C  0.50898437  0.89435352  0.58646299     0.97500
C468        C  0.10486236  0.99109568  0.58592314     0.98200
N469        N  0.44878026  0.50090422  0.92736581    -0.07000
N470        N  0.42913037  0.99232190  0.90051719    -0.63300
N471        N  0.48031259  0.56652328  0.95446473    -0.05800
N472        N  0.47827075  0.59782354  0.94735163    -0.63900
N473        N  0.49710418  0.54963170  0.92717483    -0.06500
N474        N  0.00665682  0.56908612  0.90084708    -0.63500
N475        N  0.43203647  0.51737137  0.95502255    -0.05400
N476        N  0.40075796  0.52005466  0.94776359    -0.64200
Mn477      Mn  0.00205033  0.99648997  0.92596867     1.10700
C478        C  0.39921158  0.50414988  0.91387121     0.98800
C479        C  0.99495522  0.59911021  0.91394662     0.98800
N480        N  0.49772549  0.54990746  0.57260054    -0.06500
N481        N  0.00724686  0.56946155  0.59888796    -0.61800
N482        N  0.43238359  0.51726628  0.54581804    -0.05800
N483        N  0.40118648  0.51889560  0.55319419    -0.58600
N484        N  0.44962764  0.50100951  0.57325754    -0.07100
N485        N  0.43055419  0.99158511  0.60009136    -0.61400
N486        N  0.48061363  0.56669273  0.54546164    -0.06100
N487        N  0.47829591  0.59800634  0.55262017    -0.58600
Mn488      Mn  0.50266625  0.49675515  0.57391103     1.20200
Mn489      Mn  0.45556777  0.54273066  0.00018600     1.10100
Cl490      Cl  0.00241975  0.49651532  0.49995642    -0.86600
C491        C  0.99517917  0.59943476  0.58589184     0.95800
C492        C  0.40039504  0.50270163  0.58706075     0.95600
C493        C  0.00093582  0.77513496  0.66943386     0.79600
N494        N  0.00134138  0.74665567  0.65027707    -0.78700
C495        C  0.00196190  0.71833638  0.66979855     0.82100
N496        N  0.00204040  0.71867871  0.70912897    -0.78600
C497        C  0.00147658  0.74694215  0.72879114     0.82200
N498        N  0.00091947  0.77511374  0.70886244    -0.80400
C499        C  0.00189740  0.77463606  0.83086356     0.79600
N500        N  0.00243890  0.74611544  0.84993126    -0.78700
C501        C  0.00266360  0.71790745  0.83025551     0.82100
N502        N  0.00233739  0.71845114  0.79090752    -0.78600
C503        C  0.00167544  0.74681131  0.77139588     0.82200
N504        N  0.00135602  0.77486563  0.79147265    -0.80400
C505        C  0.22348422  0.00081028  0.66877652     0.79600
N506        N  0.22308141  0.00285632  0.70808625    -0.78700
C507        C  0.25101941  0.00307896  0.72817330     0.82100
N508        N  0.27952666  0.00132564  0.70872205    -0.78100
C509        C  0.28026529  0.99942258  0.66939128     0.82200
N510        N  0.25212242  0.99914247  0.64983960    -0.80400
C511        C  0.22236095  0.00481096  0.83007910     0.79600
N512        N  0.22247140  0.00485378  0.79064146    -0.78700
C513        C  0.25065030  0.00419380  0.77077278     0.82100
N514        N  0.27885029  0.00338907  0.79050128    -0.78600
C515        C  0.27925751  0.00326914  0.82981373     0.82200
N516        N  0.25090303  0.00396899  0.84934338    -0.80400
C517        C  0.49277194  0.68819022  0.89087764    -0.21900
C518        C  0.00224319  0.68717489  0.85176054    -0.10000
C519        C  0.01055989  0.65674333  0.83379187     0.28900
C520        C  0.00877040  0.62823518  0.85445424    -0.21900
C521        C  0.99838286  0.62940969  0.89318403    -0.10000
C522        C  0.49066559  0.65973046  0.91135255     0.28900
F523        F  0.48105870  0.66201917  0.94892632    -0.20500
H524        H  0.48631844  0.71114918  0.90561653     0.17300
H525        H  0.01501022  0.60518689  0.83984282     0.17300
F526        F  0.02058152  0.65436087  0.79637593    -0.20500
C527        C  0.99008159  0.83504877  0.83608033    -0.21900
C528        C  0.00242657  0.80506340  0.85283440    -0.10000
C529        C  0.51575227  0.80460017  0.89037739     0.28900
C530        C  0.51730130  0.83354667  0.91012123    -0.21900
C531        C  0.00543114  0.86353991  0.89316037    -0.10000
C532        C  0.99131351  0.86401693  0.85604141     0.28900
F533        F  0.97919217  0.89239217  0.83861030    -0.20500
H534        H  0.97941551  0.83610773  0.80740944     0.17300
H535        H  0.52821437  0.83243603  0.93865560     0.17300
F536        F  0.52840219  0.77629543  0.90761674    -0.20500
C537        C  0.00966852  0.62869175  0.64504769    -0.21900
C538        C  0.99838331  0.62981403  0.60665340    -0.10000
C539        C  0.48957744  0.66015177  0.58882530     0.28900
C540        C  0.49135717  0.68865450  0.60938300    -0.21900
C541        C  0.00172629  0.68764534  0.64818218    -0.10000
C542        C  0.01128162  0.65723373  0.66573385     0.28900
F543        F  0.02246707  0.65492141  0.70271255    -0.20500
H544        H  0.01683866  0.60564762  0.65935958     0.17300
H545        H  0.48400979  0.71162102  0.59496924     0.17300
F546        F  0.47924730  0.66242154  0.55149723    -0.20500
C547        C  0.01150223  0.83432220  0.58824184    -0.21900
C548        C  0.00504403  0.86422557  0.60736958    -0.10000
C549        C  0.99577375  0.86477741  0.64660200     0.28900
C550        C  0.99419329  0.83581716  0.66642563    -0.21900
C551        C  0.00128952  0.80574955  0.64751188    -0.10000
C552        C  0.00942213  0.80540849  0.60781936     0.28900
F553        F  0.01624032  0.77718685  0.58789099    -0.20500
H554        H  0.01837274  0.83325550  0.55797081     0.17300
H555        H  0.98754839  0.83699382  0.69676223     0.17300
F556        F  0.98911704  0.89316107  0.66624484    -0.20500
C557        C  0.30988707  0.00827357  0.89133896    -0.21900
C558        C  0.31027550  0.00223333  0.85125745    -0.10000
C559        C  0.34047021  0.99543690  0.83231940     0.28900
C560        C  0.36928206  0.99529927  0.85305294    -0.21900
C561        C  0.36870105  0.00221567  0.89283873    -0.10000
C562        C  0.33867942  0.00839218  0.91192363     0.28900
F563        F  0.33703806  0.01441317  0.95057058    -0.20500
H564        H  0.28719526  0.01337055  0.90687873     0.17300
H565        H  0.39209599  0.99041015  0.83772425     0.17300
F566        F  0.34239281  0.98885808  0.79380997    -0.20500
C567        C  0.13304509  0.50725712  0.85471627    -0.21900
C568        C  0.13455291  0.99802990  0.89389003    -0.10000
C569        C  0.16488599  0.99294096  0.91242663     0.28900
C570        C  0.19307550  0.99602661  0.89174738    -0.21900
C571        C  0.19179670  0.00398557  0.85206756    -0.10000
C572        C  0.16123387  0.01007946  0.83389928     0.28900
F573        F  0.15838098  0.51863149  0.79598321    -0.20500
H574        H  0.10998720  0.51158143  0.83979161     0.17300
H575        H  0.21605871  0.99145996  0.90680027     0.17300
F576        F  0.16741647  0.98499178  0.95054639    -0.20500
C577        C  0.34103690  0.00166759  0.58770517    -0.21900
C578        C  0.37028234  0.99948356  0.60812487    -0.10000
C579        C  0.37007226  0.99562433  0.64858987     0.28900
C580        C  0.34084972  0.99517338  0.66822238    -0.21900
C581        C  0.31131137  0.99816326  0.64793126    -0.10000
C582        C  0.31189554  0.00074200  0.60714404     0.28900
F583        F  0.28436403  0.00314750  0.58577824    -0.20500
H584        H  0.34068098  0.50430914  0.55647922     0.17300
H585        H  0.34139010  0.99289786  0.69947281     0.17300
F586        F  0.39786597  0.99366513  0.66942551    -0.20500
C587        C  0.16300965  0.00885914  0.66481686    -0.21900
C588        C  0.19313583  0.99965396  0.64681550    -0.10000
C589        C  0.19376236  0.48876676  0.60808572     0.28900
C590        C  0.16495302  0.48642159  0.58849325    -0.21900
C591        C  0.13493953  0.99514045  0.60672278    -0.10000
C592        C  0.13418376  0.00683114  0.64502017     0.28900
F593        F  0.10570081  0.01563253  0.66379051    -0.20500
H594        H  0.16167732  0.01757188  0.69441359     0.17300
H595        H  0.16619643  0.47751873  0.55897280     0.17300
F596        F  0.22211220  0.47946656  0.58923991    -0.20500
N597        N  0.55529091  0.49229670  0.42692422    -0.06700
N598        N  0.57431716  0.00339904  0.40125008    -0.58800
N599        N  0.52419539  0.42636096  0.45428601    -0.06400
N600        N  0.52615099  0.39507098  0.44703049    -0.61000
N601        N  0.50698404  0.44333130  0.42733872    -0.06000
N602        N  0.99700626  0.42395189  0.40119256    -0.58800
N603        N  0.57264631  0.47570723  0.45405805    -0.05700
N604        N  0.60385601  0.47540545  0.44746639    -0.61300
C605        C  0.60457417  0.49290457  0.41450143     0.95500
C606        C  0.00895504  0.39388407  0.41391084     0.95200
N607        N  0.50752912  0.44366234  0.07283436    -0.06900
N608        N  0.99755659  0.42452068  0.09920018    -0.59400
N609        N  0.57276270  0.47564484  0.04531702    -0.05000
N610        N  0.60398275  0.47408499  0.05262615    -0.60700
N611        N  0.55560688  0.49249490  0.07235473    -0.06900
N612        N  0.57474728  0.00256772  0.09866025    -0.59700
N613        N  0.52428965  0.42648242  0.04572316    -0.04700
N614        N  0.52585764  0.39522492  0.05306864    -0.60800
Mn615      Mn  0.54935930  0.45015599  0.99983263     1.18400
C616        C  0.00898433  0.39435355  0.08646298     0.97500
C617        C  0.60486237  0.49109571  0.08592309     0.98200
N618        N  0.94878022  0.00090421  0.42736590    -0.07000
N619        N  0.92913036  0.49232195  0.40051727    -0.63300
N620        N  0.98031262  0.06652328  0.45446479    -0.05800
N621        N  0.97827087  0.09782355  0.44735174    -0.63900
N622        N  0.99710409  0.04963169  0.42717481    -0.06500
N623        N  0.50665672  0.06908611  0.40084702    -0.63500
N624        N  0.93203644  0.01737141  0.45502260    -0.05400
N625        N  0.90075793  0.02005470  0.44776364    -0.64200
Mn626      Mn  0.50205031  0.49649000  0.42596872     1.10700
C627        C  0.89921154  0.00414990  0.41387128     0.98800
C628        C  0.49495517  0.09911020  0.41394659     0.98800
N629        N  0.99772554  0.04990747  0.07260042    -0.06500
N630        N  0.50724684  0.06946155  0.09888787    -0.61800
N631        N  0.93238360  0.01726627  0.04581798    -0.05800
N632        N  0.90118648  0.01889562  0.05319414    -0.58600
N633        N  0.94962764  0.00100954  0.07325751    -0.07100
N634        N  0.93055419  0.49158517  0.10009135    -0.61400
N635        N  0.98061364  0.06669273  0.04546155    -0.06100
N636        N  0.97829586  0.09800634  0.05262011    -0.58600
Mn637      Mn  0.00266625  0.99675515  0.07391098     1.20200
Mn638      Mn  0.95556777  0.04273068  0.50018605     1.10100
Cl639      Cl  0.50241976  0.99651527  0.99995640    -0.86600
C640        C  0.49517911  0.09943476  0.08589177     0.95800
C641        C  0.90039504  0.00270171  0.08706075     0.95600
C642        C  0.50093582  0.27513495  0.16943387     0.79600
N643        N  0.50134139  0.24665566  0.15027708    -0.78700
C644        C  0.50196192  0.21833636  0.16979855     0.82100
N645        N  0.50204042  0.21867869  0.20912898    -0.78600
C646        C  0.50147657  0.24694215  0.22879116     0.82200
N647        N  0.50091944  0.27511374  0.20886245    -0.80400
C648        C  0.50189746  0.27463605  0.33086361     0.79600
N649        N  0.50243898  0.24611542  0.34993130    -0.78700
C650        C  0.50266366  0.21790745  0.33025555     0.82100
N651        N  0.50233739  0.21845114  0.29090755    -0.78600
C652        C  0.50167542  0.24681131  0.27139591     0.82200
N653        N  0.50135602  0.27486563  0.29147269    -0.80400
C654        C  0.72348426  0.50081028  0.16877649     0.79600
N655        N  0.72308145  0.50285628  0.20808623    -0.78700
C656        C  0.75101945  0.50307893  0.22817329     0.82100
N657        N  0.77952670  0.50132563  0.20872204    -0.78100
C658        C  0.78026534  0.49942260  0.16939127     0.82200
N659        N  0.75212246  0.49914248  0.14983958    -0.80400
C660        C  0.72236097  0.50481091  0.33007906     0.79600
N661        N  0.72247143  0.50485374  0.29064143    -0.78700
C662        C  0.75065034  0.50419377  0.27077276     0.82100
N663        N  0.77885032  0.50338905  0.29050128    -0.78600
C664        C  0.77925753  0.50326913  0.32981374     0.82200
N665        N  0.75090304  0.50396896  0.34934336    -0.80400
C666        C  0.99277196  0.18819022  0.39087768    -0.21900
C667        C  0.50224322  0.18717489  0.35176057    -0.10000
C668        C  0.51055987  0.15674335  0.33379187     0.28900
C669        C  0.50877035  0.12823519  0.35445420    -0.21900
C670        C  0.49838280  0.12940968  0.39318398    -0.10000
C671        C  0.99066562  0.15973044  0.41135256     0.28900
F672        F  0.98105870  0.16201915  0.44892632    -0.20500
H673        H  0.98631844  0.21114917  0.40561657     0.17300
H674        H  0.51501018  0.10518691  0.33984276     0.17300
F675        F  0.52058146  0.15436089  0.29637593    -0.20500
C676        C  0.49008161  0.33504878  0.33608043    -0.21900
C677        C  0.50242659  0.30506340  0.35283447    -0.10000
C678        C  0.01575232  0.30460018  0.39037747     0.28900
C679        C  0.01730137  0.33354668  0.41012132    -0.21900
C680        C  0.50543112  0.36353992  0.39316048    -0.10000
C681        C  0.49131351  0.36401694  0.35604152     0.28900
F682        F  0.47919222  0.39239219  0.33861039    -0.20500
H683        H  0.47941555  0.33610775  0.30740951     0.17300
H684        H  0.02821443  0.33243605  0.43865565     0.17300
F685        F  0.02840213  0.27629543  0.40761689    -0.20500
C686        C  0.50966848  0.12869173  0.14504763    -0.21900
C687        C  0.49838323  0.12981403  0.10665337    -0.10000
C688        C  0.98957743  0.16015180  0.08882527     0.28900
C689        C  0.99135722  0.18865451  0.10938297    -0.21900
C690        C  0.50172628  0.18764532  0.14818217    -0.10000
C691        C  0.51128164  0.15723370  0.16573380     0.28900
F692        F  0.52246709  0.15492136  0.20271250    -0.20500
H693        H  0.51683864  0.10564758  0.15935950     0.17300
H694        H  0.98400987  0.21162105  0.09496921     0.17300
F695        F  0.97924729  0.16242160  0.05149720    -0.20500
C696        C  0.51150230  0.33432224  0.08824190    -0.21900
C697        C  0.50504406  0.36422561  0.10736966    -0.10000
C698        C  0.49577375  0.36477742  0.14660205     0.28900
C699        C  0.49419331  0.33581715  0.16642568    -0.21900
C700        C  0.50128954  0.30574956  0.14751190    -0.10000
C701        C  0.50942215  0.30540851  0.10781940     0.28900
F702        F  0.51624027  0.27718689  0.08789098    -0.20500
H703        H  0.51837284  0.33325556  0.05797093     0.17300
H704        H  0.48754841  0.33699381  0.19676227     0.17300
F705        F  0.48911693  0.39316108  0.16624487    -0.20500
C706        C  0.80988706  0.50827355  0.39133900    -0.21900
C707        C  0.81027550  0.50223334  0.35125749    -0.10000
C708        C  0.84047022  0.49543694  0.33231944     0.28900
C709        C  0.86928205  0.49529935  0.35305300    -0.21900
C710        C  0.86870105  0.50221575  0.39283878    -0.10000
C711        C  0.83867940  0.50839219  0.41192368     0.28900
F712        F  0.83703805  0.51441313  0.45057064    -0.20500
H713        H  0.78719523  0.51337049  0.40687878     0.17300
H714        H  0.89209600  0.49041026  0.33772429     0.17300
F715        F  0.84239284  0.48885816  0.29381001    -0.20500
C716        C  0.63304507  0.00725706  0.35471622    -0.21900
C717        C  0.63455293  0.49802987  0.39388996    -0.10000
C718        C  0.66488600  0.49294096  0.41242656     0.28900
C719        C  0.69307551  0.49602654  0.39174731    -0.21900
C720        C  0.69179672  0.50398551  0.35206749    -0.10000
C721        C  0.66123389  0.51007941  0.33389922     0.28900
F722        F  0.65838096  0.01863152  0.29598321    -0.20500
H723        H  0.60998720  0.01158134  0.33979155     0.17300
H724        H  0.71605873  0.49145987  0.40680021     0.17300
F725        F  0.66741646  0.48499187  0.45054634    -0.20500
C726        C  0.84103694  0.50166758  0.08770517    -0.21900
C727        C  0.87028237  0.49948359  0.10812489    -0.10000
C728        C  0.87007232  0.49562433  0.14858988     0.28900
C729        C  0.84084977  0.49517341  0.16822240    -0.21900
C730        C  0.81131142  0.49816329  0.14793127    -0.10000
C731        C  0.81189558  0.50074199  0.10714406     0.28900
F732        F  0.78436407  0.50314747  0.08577825    -0.20500
H733        H  0.84068099  0.00430907  0.05647921     0.17300
H734        H  0.84139014  0.49289789  0.19947280     0.17300
F735        F  0.89786605  0.49366504  0.16942551    -0.20500
C736        C  0.66300967  0.50885911  0.16481683    -0.21900
C737        C  0.69313586  0.49965396  0.14681547    -0.10000
C738        C  0.69376236  0.98876674  0.10808567     0.28900
C739        C  0.66495301  0.98642156  0.08849321    -0.21900
C740        C  0.63493956  0.49514050  0.10672272    -0.10000
C741        C  0.63418379  0.50683113  0.14502012     0.28900
F742        F  0.60570083  0.51563251  0.16379045    -0.20500
H743        H  0.66167733  0.51757183  0.19441357     0.17300
H744        H  0.66619642  0.97751872  0.05897276     0.17300
F745        F  0.72211220  0.97946656  0.08923985    -0.20500
N746        N  0.55529095  0.49229666  0.92692426    -0.06700
N747        N  0.57431715  0.00339908  0.90125014    -0.58800
N748        N  0.52419538  0.42636093  0.95428595    -0.06400
N749        N  0.52615098  0.39507095  0.94703039    -0.61000
N750        N  0.50698404  0.44333128  0.92733866    -0.06000
N751        N  0.99700622  0.42395187  0.90119249    -0.58800
N752        N  0.57264634  0.47570720  0.95405811    -0.05700
N753        N  0.60385604  0.47540539  0.94746645    -0.61300
C754        C  0.60457422  0.49290452  0.91450150     0.95500
C755        C  0.00895503  0.39388405  0.91391074     0.95200
N756        N  0.50752915  0.44366235  0.57283442    -0.06900
N757        N  0.99755666  0.42452066  0.59920027    -0.59400
N758        N  0.57276272  0.47564492  0.54531700    -0.05000
N759        N  0.60398279  0.47408511  0.55262607    -0.60700
N760        N  0.55560692  0.49249489  0.57235479    -0.06900
N761        N  0.57474727  0.00256762  0.59866038    -0.59700
N762        N  0.52428966  0.42648244  0.54572318    -0.04700
N763        N  0.52585758  0.39522494  0.55306859    -0.60800
Mn764      Mn  0.54935931  0.45015604  0.49983263     1.18400
C765        C  0.00898431  0.39435354  0.58646297     0.97500
C766        C  0.60486243  0.49109573  0.58592309     0.98200
N767        N  0.94878024  0.00090417  0.92736584    -0.07000
N768        N  0.92913039  0.49232201  0.90051715    -0.63300
N769        N  0.98031261  0.06652325  0.95446474    -0.05800
N770        N  0.97827079  0.09782353  0.94735168    -0.63900
N771        N  0.99710412  0.04963169  0.92717479    -0.06500
N772        N  0.50665677  0.06908609  0.90084703    -0.63500
N773        N  0.93203646  0.01737134  0.95502256    -0.05400
N774        N  0.90075795  0.02005464  0.94776358    -0.64200
Mn775      Mn  0.50205037  0.49648998  0.92596866     1.10700
C776        C  0.89921157  0.00414981  0.91387124     0.98800
C777        C  0.49495520  0.09911018  0.91394659     0.98800
N778        N  0.99772550  0.04990744  0.57260051    -0.06500
N779        N  0.50724683  0.06946152  0.59888797    -0.61800
N780        N  0.93238358  0.01726630  0.54581803    -0.05800
N781        N  0.90118646  0.01889567  0.55319420    -0.58600
N782        N  0.94962761  0.00100951  0.57325752    -0.07100
N783        N  0.93055423  0.49158509  0.60009138    -0.61400
N784        N  0.98061362  0.06669271  0.54546163    -0.06100
N785        N  0.97829586  0.09800632  0.55262019    -0.58600
Mn786      Mn  0.00266623  0.99675513  0.57391101     1.20200
Mn787      Mn  0.95556778  0.04273064  0.00018600     1.10100
Cl788      Cl  0.50241975  0.99651529  0.49995642    -0.86600
C789        C  0.49517913  0.09943474  0.58589185     0.95800
C790        C  0.90039501  0.00270171  0.58706076     0.95600
C791        C  0.50093584  0.27513493  0.66943386     0.79600
N792        N  0.50134140  0.24665564  0.65027708    -0.78700
C793        C  0.50196195  0.21833635  0.66979856     0.82100
N794        N  0.50204048  0.21867867  0.70912897    -0.78600
C795        C  0.50147658  0.24694213  0.72879114     0.82200
N796        N  0.50091945  0.27511372  0.70886244    -0.80400
C797        C  0.50189744  0.27463603  0.83086355     0.79600
N798        N  0.50243894  0.24611541  0.84993125    -0.78700
C799        C  0.50266362  0.21790743  0.83025550     0.82100
N800        N  0.50233738  0.21845112  0.79090751    -0.78600
C801        C  0.50167542  0.24681130  0.77139587     0.82200
N802        N  0.50135601  0.27486561  0.79147264    -0.80400
C803        C  0.72348429  0.50081030  0.66877654     0.79600
N804        N  0.72308147  0.50285636  0.70808627    -0.78700
C805        C  0.75101947  0.50307896  0.72817332     0.82100
N806        N  0.77952673  0.50132557  0.70872208    -0.78100
C807        C  0.78026537  0.49942249  0.66939132     0.82200
N808        N  0.75212250  0.49914242  0.64983963    -0.80400
C809        C  0.72236099  0.50481099  0.83007909     0.79600
N810        N  0.72247144  0.50485381  0.79064147    -0.78700
C811        C  0.75065034  0.50419385  0.77077279     0.82100
N812        N  0.77885033  0.50338913  0.79050129    -0.78600
C813        C  0.77925754  0.50326919  0.82981374     0.82200
N814        N  0.75090306  0.50396902  0.84934338    -0.80400
C815        C  0.99277193  0.18819021  0.89087764    -0.21900
C816        C  0.50224321  0.18717487  0.85176053    -0.10000
C817        C  0.51055988  0.15674331  0.83379183     0.28900
C818        C  0.50877036  0.12823516  0.85445419    -0.21900
C819        C  0.49838285  0.12940965  0.89318399    -0.10000
C820        C  0.99066558  0.15973045  0.91135254     0.28900
F821        F  0.98105865  0.16201916  0.94892630    -0.20500
H822        H  0.98631840  0.21114917  0.90561652     0.17300
H823        H  0.51501016  0.10518687  0.83984275     0.17300
F824        F  0.52058147  0.15436086  0.79637588    -0.20500
C825        C  0.49008160  0.33504874  0.83608036    -0.21900
C826        C  0.50242660  0.30506338  0.85283440    -0.10000
C827        C  0.01575231  0.30460015  0.89037739     0.28900
C828        C  0.01730137  0.33354666  0.91012121    -0.21900
C829        C  0.50543113  0.36353989  0.89316039    -0.10000
C830        C  0.49131351  0.36401690  0.85604143     0.28900
F831        F  0.47919220  0.39239214  0.83861028    -0.20500
H832        H  0.47941552  0.33610770  0.80740945     0.17300
H833        H  0.02821445  0.33243603  0.93865558     0.17300
F834        F  0.02840211  0.27629538  0.90761679    -0.20500
C835        C  0.50966849  0.12869172  0.64504770    -0.21900
C836        C  0.49838327  0.12981402  0.60665341    -0.10000
C837        C  0.98957742  0.16015177  0.58882533     0.28900
C838        C  0.99135720  0.18865449  0.60938302    -0.21900
C839        C  0.50172632  0.18764531  0.64818220    -0.10000
C840        C  0.51128164  0.15723370  0.66573385     0.28900
F841        F  0.52246705  0.15492134  0.70271257    -0.20500
H842        H  0.51683859  0.10564759  0.65935959     0.17300
H843        H  0.98400984  0.21162101  0.59496927     0.17300
F844        F  0.97924726  0.16242156  0.55149727    -0.20500
C845        C  0.51150232  0.33432220  0.58824189    -0.21900
C846        C  0.50504406  0.36422558  0.60736961    -0.10000
C847        C  0.49577372  0.36477740  0.64660201     0.28900
C848        C  0.49419329  0.33581714  0.66642563    -0.21900
C849        C  0.50128955  0.30574953  0.64751189    -0.10000
C850        C  0.50942218  0.30540848  0.60781938     0.28900
F851        F  0.51624033  0.27718684  0.58789101    -0.20500
H852        H  0.51837290  0.33325549  0.55797088     0.17300
H853        H  0.48754836  0.33699380  0.69676222     0.17300
F854        F  0.48911689  0.39316105  0.66624483    -0.20500
C855        C  0.80988709  0.50827361  0.89133896    -0.21900
C856        C  0.81027553  0.50223335  0.85125746    -0.10000
C857        C  0.84047023  0.49543688  0.83231942     0.28900
C858        C  0.86928209  0.49529926  0.85305295    -0.21900
C859        C  0.86870107  0.50221572  0.89283874    -0.10000
C860        C  0.83867944  0.50839222  0.91192363     0.28900
F861        F  0.83703809  0.51441323  0.95057058    -0.20500
H862        H  0.78719528  0.51337062  0.90687873     0.17300
H863        H  0.89209600  0.49041010  0.83772428     0.17300
F864        F  0.84239285  0.48885801  0.79381000    -0.20500
C865        C  0.63304503  0.00725714  0.85471627    -0.21900
C866        C  0.63455297  0.49802984  0.89389003    -0.10000
C867        C  0.66488606  0.49294089  0.91242661     0.28900
C868        C  0.69307556  0.49602655  0.89174734    -0.21900
C869        C  0.69179675  0.50398557  0.85206754    -0.10000
C870        C  0.66123391  0.51007945  0.83389928     0.28900
F871        F  0.65838093  0.01863144  0.79598318    -0.20500
H872        H  0.60998714  0.01158140  0.83979158     0.17300
H873        H  0.71605878  0.49145987  0.90680022     0.17300
F874        F  0.66741655  0.48499172  0.95054637    -0.20500
C875        C  0.84103696  0.50166753  0.58770520    -0.21900
C876        C  0.87028240  0.49948347  0.60812490    -0.10000
C877        C  0.87007234  0.49562426  0.64858990     0.28900
C878        C  0.84084979  0.49517332  0.66822242    -0.21900
C879        C  0.81131145  0.49816317  0.64793129    -0.10000
C880        C  0.81189561  0.50074191  0.60714407     0.28900
F881        F  0.78436410  0.50314733  0.58577826    -0.20500
H882        H  0.84068096  0.00430917  0.55647921     0.17300
H883        H  0.84139016  0.49289783  0.69947282     0.17300
F884        F  0.89786605  0.49366506  0.66942555    -0.20500
C885        C  0.66300972  0.50885921  0.66481682    -0.21900
C886        C  0.69313591  0.49965397  0.64681552    -0.10000
C887        C  0.69376233  0.98876688  0.60808566     0.28900
C888        C  0.66495298  0.98642166  0.58849323    -0.21900
C889        C  0.63493963  0.49514049  0.60672273    -0.10000
C890        C  0.63418385  0.50683120  0.64502012     0.28900
F891        F  0.60570088  0.51563260  0.66379044    -0.20500
H892        H  0.66167738  0.51757201  0.69441356     0.17300
H893        H  0.66619638  0.97751887  0.55897274     0.17300
F894        F  0.72211218  0.97946686  0.58923979    -0.20500
N895        N  0.55529091  0.99229665  0.42692419    -0.06700
N896        N  0.57431714  0.50339907  0.40125007    -0.58800
N897        N  0.52419529  0.92636095  0.45428603    -0.06400
N898        N  0.52615087  0.89507098  0.44703051    -0.61000
N899        N  0.50698395  0.94333130  0.42733874    -0.06000
N900        N  0.99700629  0.92395187  0.40119252    -0.58800
N901        N  0.57264630  0.97570718  0.45405803    -0.05700
N902        N  0.60385600  0.97540537  0.44746640    -0.61300
C903        C  0.60457418  0.99290449  0.41450145     0.95500
C904        C  0.00895502  0.89388405  0.41391085     0.95200
N905        N  0.50752918  0.94366234  0.07283442    -0.06900
N906        N  0.99755657  0.92452065  0.09920019    -0.59400
N907        N  0.57276272  0.97564484  0.04531698    -0.05000
N908        N  0.60398278  0.97408502  0.05262607    -0.60700
N909        N  0.55560692  0.99249489  0.07235471    -0.06900
N910        N  0.57474724  0.50256776  0.09866027    -0.59700
N911        N  0.52428966  0.92648241  0.04572318    -0.04700
N912        N  0.52585760  0.89522491  0.05306862    -0.60800
Mn913      Mn  0.54935928  0.95015596  0.99983261     1.18400
C914        C  0.00898435  0.89435353  0.08646298     0.97500
C915        C  0.60486241  0.99109571  0.08592304     0.98200
N916        N  0.94878021  0.50090421  0.42736592    -0.07000
N917        N  0.92913036  0.99232198  0.40051724    -0.63300
N918        N  0.98031261  0.56652330  0.45446479    -0.05800
N919        N  0.97827083  0.59782356  0.44735171    -0.63900
N920        N  0.99710411  0.54963171  0.42717485    -0.06500
N921        N  0.50665670  0.56908612  0.40084703    -0.63500
N922        N  0.93203643  0.51737144  0.45502261    -0.05400
N923        N  0.90075792  0.52005476  0.44776360    -0.64200
Mn924      Mn  0.50205032  0.99648998  0.42596870     1.10700
C925        C  0.89921154  0.50414991  0.41387127     0.98800
C926        C  0.49495516  0.59911022  0.41394660     0.98800
N927        N  0.99772550  0.54990745  0.07260044    -0.06500
N928        N  0.50724678  0.56946153  0.09888792    -0.61800
N929        N  0.93238358  0.51726629  0.04581797    -0.05800
N930        N  0.90118647  0.51889568  0.05319415    -0.58600
N931        N  0.94962762  0.50100953  0.07325748    -0.07100
N932        N  0.93055421  0.99158516  0.10009137    -0.61400
N933        N  0.98061362  0.56669272  0.04546157    -0.06100
N934        N  0.97829589  0.59800632  0.05262011    -0.58600
Mn935      Mn  0.00266624  0.49675514  0.07391097     1.20200
Mn936      Mn  0.95556777  0.54273069  0.50018607     1.10100
Cl937      Cl  0.50241975  0.49651529  0.99995639    -0.86600
C938        C  0.49517912  0.59943474  0.08589178     0.95800
C939        C  0.90039502  0.50270176  0.08706075     0.95600
C940        C  0.50093584  0.77513492  0.16943385     0.79600
N941        N  0.50134137  0.74665562  0.15027708    -0.78700
C942        C  0.50196187  0.71833634  0.16979858     0.82100
N943        N  0.50204039  0.71867868  0.20912900    -0.78600
C944        C  0.50147658  0.74694214  0.22879116     0.82200
N945        N  0.50091948  0.77511372  0.20886244    -0.80400
C946        C  0.50189739  0.77463606  0.33086362     0.79600
N947        N  0.50243892  0.74611543  0.34993131    -0.78700
C948        C  0.50266359  0.71790746  0.33025555     0.82100
N949        N  0.50233738  0.71845115  0.29090755    -0.78600
C950        C  0.50167541  0.74681133  0.27139591     0.82200
N951        N  0.50135595  0.77486564  0.29147270    -0.80400
C952        C  0.72348424  0.00081030  0.16877648     0.79600
N953        N  0.72308144  0.00285627  0.20808621    -0.78700
C954        C  0.75101944  0.00307891  0.22817327     0.82100
N955        N  0.77952668  0.00132561  0.20872202    -0.78100
C956        C  0.78026531  0.99942262  0.16939125     0.82200
N957        N  0.75212244  0.99914256  0.14983956    -0.80400
C958        C  0.72236099  0.00481092  0.33007907     0.79600
N959        N  0.72247144  0.00485371  0.29064144    -0.78700
C960        C  0.75065034  0.00419374  0.27077274     0.82100
N961        N  0.77885034  0.00338906  0.29050124    -0.78600
C962        C  0.77925755  0.00326919  0.32981370     0.82200
N963        N  0.75090307  0.00396900  0.34934334    -0.80400
C964        C  0.99277203  0.68819024  0.39087771    -0.21900
C965        C  0.50224317  0.68717491  0.35176056    -0.10000
C966        C  0.51055982  0.65674336  0.33379186     0.28900
C967        C  0.50877036  0.62823520  0.35445422    -0.21900
C968        C  0.49838282  0.62940970  0.39318401    -0.10000
C969        C  0.99066567  0.65973046  0.41135259     0.28900
F970        F  0.98105880  0.66201917  0.44892637    -0.20500
H971        H  0.98631856  0.71114919  0.40561662     0.17300
H972        H  0.51501019  0.60518692  0.33984279     0.17300
F973        F  0.52058133  0.65436091  0.29637589    -0.20500
C974        C  0.49008157  0.83504875  0.33608043    -0.21900
C975        C  0.50242658  0.80506339  0.35283448    -0.10000
C976        C  0.01575228  0.80460016  0.39037749     0.28900
C977        C  0.01730132  0.83354666  0.41012134    -0.21900
C978        C  0.50543109  0.86353990  0.39316047    -0.10000
C979        C  0.49131345  0.86401692  0.35604153     0.28900
F980        F  0.47919211  0.89239216  0.33861041    -0.20500
H981        H  0.47941550  0.83610771  0.30740954     0.17300
H982        H  0.02821437  0.83243603  0.43865570     0.17300
F983        F  0.02840215  0.77629540  0.40761686    -0.20500
C984        C  0.50966847  0.62869170  0.14504768    -0.21900
C985        C  0.49838328  0.62981400  0.10665338    -0.10000
C986        C  0.98957745  0.66015176  0.08882531     0.28900
C987        C  0.99135724  0.68865447  0.10938301    -0.21900
C988        C  0.50172625  0.68764529  0.14818222    -0.10000
C989        C  0.51128157  0.65723367  0.16573386     0.28900
F990        F  0.52246691  0.65492133  0.20271261    -0.20500
H991        H  0.51683860  0.60564756  0.15935955     0.17300
H992        H  0.98400989  0.71162101  0.09496925     0.17300
F993        F  0.97924724  0.66242156  0.05149728    -0.20500
C994        C  0.51150227  0.83432223  0.08824187    -0.21900
C995        C  0.50504404  0.86422560  0.10736965    -0.10000
C996        C  0.49577374  0.86477740  0.14660206     0.28900
C997        C  0.49419327  0.83581713  0.16642565    -0.21900
C998        C  0.50128954  0.80574953  0.14751188    -0.10000
C999        C  0.50942216  0.80540850  0.10781937     0.28900
F1000       F  0.51624037  0.77718687  0.08789098    -0.20500
H1001       H  0.51837282  0.83325555  0.05797090     0.17300
H1002       H  0.48754834  0.83699377  0.19676223     0.17300
F1003       F  0.48911703  0.89316104  0.16624494    -0.20500
C1004       C  0.80988708  0.00827364  0.39133895    -0.21900
C1005       C  0.81027554  0.00223338  0.35125745    -0.10000
C1006       C  0.84047027  0.99543684  0.33231946     0.28900
C1007       C  0.86928210  0.99529923  0.35305303    -0.21900
C1008       C  0.86870106  0.00221573  0.39283880    -0.10000
C1009       C  0.83867941  0.00839221  0.41192367     0.28900
F1010       F  0.83703803  0.01441314  0.45057063    -0.20500
H1011       H  0.78719526  0.01337067  0.40687870     0.17300
H1012       H  0.89209604  0.99041005  0.33772438     0.17300
F1013       F  0.84239292  0.98885798  0.29381005    -0.20500
C1014       C  0.63304505  0.50725711  0.35471617    -0.21900
C1015       C  0.63455295  0.99802980  0.39388999    -0.10000
C1016       C  0.66488603  0.99294088  0.41242658     0.28900
C1017       C  0.69307554  0.99602652  0.39174733    -0.21900
C1018       C  0.69179674  0.00398552  0.35206753    -0.10000
C1019       C  0.66123390  0.01007942  0.33389927     0.28900
F1020       F  0.65838096  0.51863140  0.29598312    -0.20500
H1021       H  0.60998719  0.51158140  0.33979151     0.17300
H1022       H  0.71605876  0.99145987  0.40680023     0.17300
F1023       F  0.66741653  0.98499173  0.45054634    -0.20500
C1024       C  0.84103694  0.00166750  0.08770516    -0.21900
C1025       C  0.87028238  0.99948350  0.10812488    -0.10000
C1026       C  0.87007231  0.99562424  0.14858988     0.28900
C1027       C  0.84084975  0.99517332  0.16822238    -0.21900
C1028       C  0.81131140  0.99816325  0.14793124    -0.10000
C1029       C  0.81189557  0.00074194  0.10714404     0.28900
F1030       F  0.78436406  0.00314743  0.08577822    -0.20500
H1031       H  0.84068098  0.50430915  0.05647922     0.17300
H1032       H  0.84139011  0.99289781  0.19947278     0.17300
F1033       F  0.89786602  0.99366503  0.16942553    -0.20500
C1034       C  0.66300969  0.00885914  0.16481679    -0.21900
C1035       C  0.69313587  0.99965392  0.14681546    -0.10000
C1036       C  0.69376233  0.48876684  0.10808565     0.28900
C1037       C  0.66495297  0.48642169  0.08849318    -0.21900
C1038       C  0.63493959  0.99514046  0.10672269    -0.10000
C1039       C  0.63418381  0.00683118  0.14502007     0.28900
F1040       F  0.60570084  0.01563266  0.16379035    -0.20500
H1041       H  0.66167734  0.01757191  0.19441351     0.17300
H1042       H  0.66619636  0.47751893  0.05897270     0.17300
F1043       F  0.72211217  0.47946674  0.08923979    -0.20500
N1044       N  0.55529091  0.99229663  0.92692422    -0.06700
N1045       N  0.57431720  0.50339906  0.90125015    -0.58800
N1046       N  0.52419531  0.92636091  0.95428597    -0.06400
N1047       N  0.52615090  0.89507093  0.94703043    -0.61000
N1048       N  0.50698397  0.94333126  0.92733869    -0.06000
N1049       N  0.99700631  0.92395186  0.90119248    -0.58800
N1050       N  0.57264630  0.97570714  0.95405804    -0.05700
N1051       N  0.60385600  0.97540539  0.94746642    -0.61300
C1052       C  0.60457416  0.99290457  0.91450152     0.95500
C1053       C  0.00895512  0.89388404  0.91391072     0.95200
N1054       N  0.50752917  0.94366233  0.57283443    -0.06900
N1055       N  0.99755661  0.92452064  0.59920020    -0.59400
N1056       N  0.57276272  0.97564490  0.54531698    -0.05000
N1057       N  0.60398278  0.97408507  0.55262609    -0.60700
N1058       N  0.55560691  0.99249485  0.57235479    -0.06900
N1059       N  0.57474730  0.50256769  0.59866035    -0.59700
N1060       N  0.52428967  0.92648242  0.54572319    -0.04700
N1061       N  0.52585760  0.89522492  0.55306860    -0.60800
Mn1062     Mn  0.54935929  0.95015602  0.49983262     1.18400
C1063       C  0.00898434  0.89435352  0.58646295     0.97500
C1064       C  0.60486240  0.99109568  0.58592313     0.98200
N1065       N  0.94878023  0.50090424  0.92736581    -0.07000
N1066       N  0.92913039  0.99232190  0.90051719    -0.63300
N1067       N  0.98031259  0.56652328  0.95446474    -0.05800
N1068       N  0.97827081  0.59782355  0.94735168    -0.63900
N1069       N  0.99710416  0.54963170  0.92717484    -0.06500
N1070       N  0.50665681  0.56908613  0.90084706    -0.63500
N1071       N  0.93203644  0.51737138  0.95502256    -0.05400
N1072       N  0.90075794  0.52005466  0.94776359    -0.64200
Mn1073     Mn  0.50205032  0.99648995  0.92596867     1.10700
C1074       C  0.89921156  0.50414989  0.91387121     0.98800
C1075       C  0.49495517  0.59911022  0.91394658     0.98800
N1076       N  0.99772554  0.54990746  0.57260052    -0.06500
N1077       N  0.50724678  0.56946155  0.59888800    -0.61800
N1078       N  0.93238361  0.51726628  0.54581804    -0.05800
N1079       N  0.90118650  0.51889559  0.55319418    -0.58600
N1080       N  0.94962765  0.50100952  0.57325755    -0.07100
N1081       N  0.93055418  0.99158511  0.60009136    -0.61400
N1082       N  0.98061366  0.56669272  0.54546164    -0.06100
N1083       N  0.97829594  0.59800633  0.55262017    -0.58600
Mn1084     Mn  0.00266626  0.49675515  0.57391103     1.20200
Mn1085     Mn  0.95556775  0.54273067  0.00018601     1.10100
Cl1086     Cl  0.50241975  0.49651533  0.49995643    -0.86600
C1087       C  0.49517911  0.59943476  0.58589186     0.95800
C1088       C  0.90039505  0.50270163  0.58706075     0.95600
C1089       C  0.50093578  0.77513496  0.66943386     0.79600
N1090       N  0.50134131  0.74665567  0.65027707    -0.78700
C1091       C  0.50196187  0.71833638  0.66979856     0.82100
N1092       N  0.50204046  0.71867870  0.70912897    -0.78600
C1093       C  0.50147666  0.74694214  0.72879114     0.82200
N1094       N  0.50091949  0.77511374  0.70886244    -0.80400
C1095       C  0.50189742  0.77463605  0.83086356     0.79600
N1096       N  0.50243887  0.74611544  0.84993126    -0.78700
C1097       C  0.50266358  0.71790745  0.83025551     0.82100
N1098       N  0.50233744  0.71845114  0.79090752    -0.78600
C1099       C  0.50167550  0.74681130  0.77139587     0.82200
N1100       N  0.50135604  0.77486562  0.79147265    -0.80400
C1101       C  0.72348424  0.00081028  0.66877653     0.79600
N1102       N  0.72308143  0.00285631  0.70808626    -0.78700
C1103       C  0.75101943  0.00307895  0.72817331     0.82100
N1104       N  0.77952669  0.00132563  0.70872206    -0.78100
C1105       C  0.78026532  0.99942258  0.66939130     0.82200
N1106       N  0.75212245  0.99914247  0.64983962    -0.80400
C1107       C  0.72236096  0.00481097  0.83007910     0.79600
N1108       N  0.72247141  0.00485379  0.79064147    -0.78700
C1109       C  0.75065032  0.00419380  0.77077278     0.82100
N1110       N  0.77885031  0.00338906  0.79050128    -0.78600
C1111       C  0.77925753  0.00326914  0.82981373     0.82200
N1112       N  0.75090305  0.00396899  0.84934337    -0.80400
C1113       C  0.99277200  0.68819022  0.89087766    -0.21900
C1114       C  0.50224315  0.68717489  0.85176053    -0.10000
C1115       C  0.51055985  0.65674334  0.83379185     0.28900
C1116       C  0.50877035  0.62823518  0.85445421    -0.21900
C1117       C  0.49838280  0.62940969  0.89318400    -0.10000
C1118       C  0.99066565  0.65973046  0.91135257     0.28900
F1119       F  0.98105874  0.66201919  0.94892634    -0.20500
H1120       H  0.98631849  0.71114918  0.90561654     0.17300
H1121       H  0.51501020  0.60518690  0.83984281     0.17300
F1122       F  0.52058152  0.65436088  0.79637593    -0.20500
C1123       C  0.49008154  0.83504875  0.83608033    -0.21900
C1124       C  0.50242656  0.80506340  0.85283439    -0.10000
C1125       C  0.01575226  0.80460018  0.89037741     0.28900
C1126       C  0.01730131  0.83354667  0.91012124    -0.21900
C1127       C  0.50543107  0.86353990  0.89316038    -0.10000
C1128       C  0.49131343  0.86401692  0.85604142     0.28900
F1129       F  0.47919210  0.89239216  0.83861030    -0.20500
H1130       H  0.47941548  0.83610771  0.80740944     0.17300
H1131       H  0.02821436  0.83243604  0.93865563     0.17300
F1132       F  0.02840213  0.77629542  0.90761678    -0.20500
C1133       C  0.50966849  0.62869174  0.64504770    -0.21900
C1134       C  0.49838326  0.62981403  0.60665342    -0.10000
C1135       C  0.98957744  0.66015177  0.58882531     0.28900
C1136       C  0.99135720  0.68865451  0.60938299    -0.21900
C1137       C  0.50172624  0.68764533  0.64818220    -0.10000
C1138       C  0.51128161  0.65723373  0.66573385     0.28900
F1139       F  0.52246709  0.65492141  0.70271254    -0.20500
H1140       H  0.51683864  0.60564762  0.65935959     0.17300
H1141       H  0.98400979  0.71162102  0.59496924     0.17300
F1142       F  0.97924719  0.66242154  0.55149728    -0.20500
C1143       C  0.51150225  0.83432221  0.58824187    -0.21900
C1144       C  0.50504404  0.86422558  0.60736961    -0.10000
C1145       C  0.49577372  0.86477741  0.64660202     0.28900
C1146       C  0.49419324  0.83581716  0.66642564    -0.21900
C1147       C  0.50128949  0.80574956  0.64751189    -0.10000
C1148       C  0.50942213  0.80540849  0.60781938     0.28900
F1149       F  0.51624036  0.77718685  0.58789103    -0.20500
H1150       H  0.51837282  0.83325550  0.55797086     0.17300
H1151       H  0.48754831  0.83699383  0.69676222     0.17300
F1152       F  0.48911699  0.89316107  0.66624487    -0.20500
C1153       C  0.80988709  0.00827356  0.89133894    -0.21900
C1154       C  0.81027553  0.00223332  0.85125743    -0.10000
C1155       C  0.84047025  0.99543690  0.83231940     0.28900
C1156       C  0.86928209  0.99529928  0.85305295    -0.21900
C1157       C  0.86870107  0.00221568  0.89283875    -0.10000
C1158       C  0.83867943  0.00839218  0.91192363     0.28900
F1159       F  0.83703806  0.01441316  0.95057058    -0.20500
H1160       H  0.78719527  0.01337054  0.90687870     0.17300
H1161       H  0.89209603  0.99041016  0.83772428     0.17300
F1162       F  0.84239286  0.98885808  0.79380997    -0.20500
C1163       C  0.63304508  0.50725712  0.85471625    -0.21900
C1164       C  0.63455291  0.99802991  0.89389005    -0.10000
C1165       C  0.66488599  0.99294097  0.91242664     0.28900
C1166       C  0.69307549  0.99602661  0.89174737    -0.21900
C1167       C  0.69179670  0.00398558  0.85206755    -0.10000
C1168       C  0.66123386  0.01007946  0.83389929     0.28900
F1169       F  0.65838095  0.51863150  0.79598319    -0.20500
H1170       H  0.60998721  0.51158143  0.83979160     0.17300
H1171       H  0.71605871  0.99145997  0.90680026     0.17300
F1172       F  0.66741649  0.98499178  0.95054639    -0.20500
C1173       C  0.84103692  0.00166759  0.58770518    -0.21900
C1174       C  0.87028235  0.99948355  0.60812489    -0.10000
C1175       C  0.87007228  0.99562433  0.64858988     0.28900
C1176       C  0.84084975  0.99517338  0.66822239    -0.21900
C1177       C  0.81131140  0.99816326  0.64793128    -0.10000
C1178       C  0.81189556  0.00074200  0.60714406     0.28900
F1179       F  0.78436405  0.00314750  0.58577827    -0.20500
H1180       H  0.84068099  0.50430913  0.55647922     0.17300
H1181       H  0.84139012  0.99289786  0.69947282     0.17300
F1182       F  0.89786599  0.99366513  0.66942551    -0.20500
C1183       C  0.66300968  0.00885914  0.66481685    -0.21900
C1184       C  0.69313586  0.99965396  0.64681550    -0.10000
C1185       C  0.69376239  0.48876676  0.60808573     0.28900
C1186       C  0.66495305  0.48642159  0.58849326    -0.21900
C1187       C  0.63493958  0.99514045  0.60672277    -0.10000
C1188       C  0.63418380  0.00683114  0.64502015     0.28900
F1189       F  0.60570085  0.01563253  0.66379050    -0.20500
H1190       H  0.66167735  0.01757188  0.69441358     0.17300
H1191       H  0.66619646  0.47751874  0.55897280     0.17300
F1192       F  0.72211223  0.47946657  0.58923992    -0.20500
loop_ 
_geom_bond_atom_site_label_1 
_geom_bond_atom_site_label_2 
_geom_bond_distance 
_geom_bond_site_symmetry_2 
_ccdc_geom_bond_type 
N1            N7   1.316       .  A
N1          N300   1.321       .  A
N1          Mn30   2.205       .  S
N2          N299   1.321   1_545  A
N2          C307   1.354   1_545  A
N3            N5   1.316       .  A
N3            N4   1.320       .  A
N3         Mn168   2.207       .  S
N4          C606   1.354       .  A
N5          N602   1.320   1_455  A
N5          Mn30   2.198       .  S
N6          N601   1.320       .  A
N6           C10   1.353       .  A
N7            N8   1.322       .  A
N7         Mn168   2.213       .  S
N8            C9   1.355       .  A
C9          N300   1.354       .  A
C9          C121   1.484       .  S
C10         N600   1.354       .  A
C10         C680   1.481       .  S
N11          N17   1.316       .  A
N11         N608   1.320   1_455  A
N11        Mn935   2.196       .  S
N12         N607   1.320       .  A
N12          C20   1.352       .  A
N13          N14   1.320       .  A
N13          N15   1.315       .  A
N13         Mn19   2.205   1_554  S
N14          C21   1.354       .  A
N15         N314   1.319       .  A
N15        Mn935   2.193       .  S
N16         N313   1.319   1_545  A
N16         C319   1.352   1_545  A
N17          N18   1.321       .  A
N17         Mn19   2.213   1_554  S
N18         C616   1.355       .  A
Mn19        N152   2.207       .  S
Mn19        N156   2.213       .  S
Mn19       Cl341   2.541       .  S
C20         N614   1.355       .  A
C20         C697   1.481       .  S
C21         N314   1.352       .  A
C21         C144   1.478       .  S
N22          N28   1.316       .  A
N22         N321   1.322   1_545  A
N22        Mn924   2.206   1_545  S
N23         N320   1.322       .  A
N23         C329   1.355       .  A
N24          N26   1.315       .  A
N24          N25   1.320       .  A
N24         Mn42   2.204       .  S
N25         C628   1.354       .  A
N26         N623   1.320       .  A
N26        Mn924   2.197   1_545  S
N27         N622   1.320   1_455  A
N27          C32   1.353   1_455  A
N28          N29   1.319       .  A
N28         Mn42   2.197       .  S
N29          C31   1.351       .  A
Mn30        N916   2.206   1_455  S
Mn30        N920   2.197   1_455  S
Mn30       Cl490   2.554       .  S
C31         N321   1.355   1_545  A
C31         C412   1.479       .  S
C32         N621   1.354       .  A
C32          C74   1.480       .  S
N33          N39   1.315       .  A
N33         N630   1.321       .  A
N33         Mn41   2.198   1_545  S
N34         N629   1.321   1_455  A
N34          C44   1.354   1_455  A
N35          N36   1.320       .  A
N35          N37   1.315       .  A
N35        Mn191   2.205       .  S
N36          C45   1.354       .  A
N37         N336   1.321   1_545  A
N37         Mn41   2.197   1_545  S
N38         N335   1.321       .  A
N38         C343   1.353       .  A
N39          N40   1.320       .  A
N39        Mn191   2.202       .  S
N40         C640   1.353       .  A
Mn41        N905   2.196       .  S
Mn41        N909   2.193       .  S
Mn41       Cl639   2.553   1_554  S
Mn42        N184   2.205       .  S
Mn42        N188   2.202       .  S
Mn42       Cl788   2.535   1_545  S
Cl43       Mn317   2.541       .  S
Cl43       Mn477   2.554       .  S
Cl43       Mn637   2.553   1_556  S
Cl43       Mn787   2.535   1_466  S
C44         N636   1.353       .  A
C44          C91   1.480       .  S
C45         N336   1.353   1_545  A
C45         C429   1.477   1_545  S
C46          N47   1.358       .  A
C46          N51   1.361       .  A
C46         C104   1.488       .  S
N47          C48   1.358       .  A
C48          N49   1.358       .  A
C48          C94   1.484       .  S
N49          C50   1.358       .  A
C50          N51   1.360       .  A
C50          C56   1.471       .  S
C52          N53   1.358       .  A
C52          N57   1.360       .  A
C52          C81   1.482       .  S
N53          C54   1.358       .  A
C54          N55   1.359       .  A
C54          C71   1.485       .  S
N55          C56   1.359       .  A
C56          N57   1.359       .  A
C58          N59   1.360       .  A
C58          N63   1.357       .  A
C58         C141   1.484       .  S
N59          C60   1.358       .  A
C60          N61   1.360       .  A
C60          C66   1.471       .  S
N61          C62   1.360       .  A
C62          N63   1.357       .  A
C62         C134   1.489       .  S
C64          N65   1.362       .  A
C64          N69   1.361       .  A
C64         C124   1.491       .  S
N65          C66   1.360       .  A
C66          N67   1.356       .  A
N67          C68   1.357       .  A
C68          N69   1.360       .  A
C68         C111   1.487       .  S
C70          C75   1.397       .  A
C70         C667   1.407       .  A
C70          H77   1.083       .  S
C71          C72   1.410       .  A
C71         C666   1.407   1_455  A
C72          C73   1.399       .  A
C72          F79   1.357       .  S
C73          C74   1.405   1_455  A
C73          H78   1.083       .  S
C74         C671   1.406       .  A
C75         C670   1.406       .  A
C75          F76   1.357       .  S
C80          C81   1.405   1_655  A
C80          C85   1.399       .  A
C80          H87   1.083       .  S
C81         C678   1.409       .  A
C82          C83   1.397       .  A
C82         C677   1.409       .  A
C82          F89   1.357       .  S
C83         C680   1.404       .  A
C83          H88   1.083       .  S
C84         C606   1.481       .  S
C84          C85   1.409   1_455  A
C84         C679   1.404       .  A
C85          F86   1.357       .  S
C90          C91   1.405   1_455  A
C90          C95   1.399       .  A
C90          H97   1.083       .  S
C91         C688   1.407       .  A
C92          C93   1.397       .  A
C92         C687   1.407       .  A
C92          F99   1.357       .  S
C93         C690   1.406       .  A
C93          H98   1.083       .  S
C94          C95   1.409       .  A
C94         C689   1.406   1_455  A
C95          F96   1.357       .  S
C100        C101   1.402       .  A
C100        C105   1.398       .  A
C100        H107   1.083       .  S
C101        C616   1.481       .  S
C101        C102   1.408   1_455  A
C102        C103   1.400       .  A
C102        F109   1.357       .  S
C103        C104   1.407   1_655  A
C103        H108   1.083       .  S
C104        C105   1.412       .  A
C105        F106   1.357       .  S
C110        C111   1.406       .  A
C110        C115   1.397       .  A
C110        H117   1.083       .  S
C111        C112   1.412       .  A
C112        C113   1.399       .  A
C112        F119   1.357       .  S
C113        C114   1.403       .  A
C113        H118   1.083       .  S
C114        C329   1.479       .  S
C114        C115   1.407       .  A
C115        F116   1.357       .  S
C120        C419   1.405   1_545  A
C120        C423   1.400       .  A
C120        H127   1.083       .  S
C121        C122   1.407       .  A
C121        C418   1.405       .  A
C122        C123   1.400       .  A
C122        F129   1.357       .  S
C123        C124   1.409       .  A
C123        H128   1.083       .  S
C124        C125   1.411       .  A
C125        C418   1.400       .  A
C125        F424   1.357       .  S
F126        C423   1.357       .  S
C130        C131   1.401       .  A
C130        C135   1.397       .  A
C130        H435   1.084       .  S
C131        C343   1.477       .  S
C131        C132   1.406       .  A
C132        C133   1.400       .  A
C132        F139   1.357       .  S
C133        C134   1.408       .  A
C133        H138   1.083       .  S
C134        C135   1.413       .  A
C135        F136   1.357       .  S
H137        C428   1.084       .  S
C140        C141   1.405       .  A
C140        C145   1.398       .  A
C140        H147   1.083       .  S
C141        C440   1.411       .  A
C142        C143   1.396       .  A
C142        C439   1.411       .  A
C142        F149   1.357       .  S
C143        C442   1.402       .  A
C143        H148   1.083       .  S
C144        C145   1.408       .  A
C144        C441   1.402       .  A
C145        F146   1.357       .  S
N150        N449   1.321       .  A
N150        N156   1.316       .  A
N150       Mn179   2.205       .  S
N151        N448   1.321   1_545  A
N151        C456   1.354   1_545  A
N152        N154   1.316       .  A
N152        N153   1.320       .  A
N153        C755   1.354       .  A
N154        N751   1.320   1_455  A
N154       Mn179   2.198       .  S
N155        N750   1.320       .  A
N155        C159   1.353       .  A
N156        N157   1.322       .  A
N157        C158   1.355       .  A
C158        N449   1.354       .  A
C158        C270   1.484       .  S
C159        N749   1.354       .  A
C159        C829   1.481       .  S
N160        N166   1.316       .  A
N160        N757   1.320   1_455  A
N160      Mn1084   2.196       .  S
N161        N756   1.320       .  A
N161        C169   1.352       .  A
N162        N163   1.320       .  A
N162        N164   1.315       .  A
N162       Mn168   2.205       .  S
N163        C170   1.354       .  A
N164        N463   1.319       .  A
N164      Mn1084   2.193       .  S
N165        N462   1.319   1_545  A
N165        C468   1.352   1_545  A
N166        N167   1.321       .  A
N166       Mn168   2.213       .  S
N167        C765   1.355       .  A
Mn168      Cl490   2.541       .  S
C169        N763   1.355       .  A
C169        C846   1.481       .  S
C170        N463   1.352       .  A
C170        C293   1.478       .  S
N171        N470   1.322   1_545  A
N171        N177   1.316       .  A
N171      Mn1073   2.206   1_545  S
N172        N469   1.322       .  A
N172        C478   1.355       .  A
N173        N175   1.315       .  A
N173        N174   1.320       .  A
N173       Mn191   2.204   1_556  S
N174        C777   1.354       .  A
N175        N772   1.320       .  A
N175      Mn1073   2.197   1_545  S
N176        N771   1.320   1_455  A
N176        C181   1.353   1_455  A
N177        N178   1.319       .  A
N177       Mn191   2.197   1_556  S
N178        C180   1.351       .  A
Mn179      N1065   2.206   1_455  S
Mn179      N1069   2.197   1_455  S
Mn179      Cl341   2.554       .  S
C180        N470   1.355   1_545  A
C180        C561   1.479       .  S
C181        N770   1.354       .  A
C181        C223   1.480       .  S
N182        N779   1.321       .  A
N182        N188   1.315       .  A
N182       Mn190   2.198   1_545  S
N183        N778   1.321   1_455  A
N183        C193   1.354   1_455  A
N184        N185   1.320       .  A
N184        N186   1.315       .  A
N185        C194   1.354       .  A
N186        N485   1.321   1_545  A
N186       Mn190   2.197   1_545  S
N187        N484   1.321       .  A
N187        C492   1.353       .  A
N188        N189   1.320       .  A
N189        C789   1.353       .  A
Mn190      N1054   2.196       .  S
Mn190      N1058   2.193       .  S
Mn190      Cl788   2.553       .  S
Mn191      Cl639   2.535   1_544  S
Cl192      Mn466   2.541       .  S
Cl192      Mn328   2.554       .  S
Cl192      Mn786   2.553       .  S
Cl192      Mn638   2.535   1_465  S
C193        N785   1.353       .  A
C193        C240   1.480       .  S
C194        N485   1.353   1_545  A
C194        C578   1.477   1_545  S
C195        N196   1.358       .  A
C195        N200   1.361       .  A
C195        C253   1.488       .  S
N196        C197   1.358       .  A
C197        N198   1.358       .  A
C197        C243   1.484       .  S
N198        C199   1.358       .  A
C199        N200   1.360       .  A
C199        C205   1.471       .  S
C201        N202   1.358       .  A
C201        N206   1.360       .  A
C201        C230   1.482       .  S
N202        C203   1.358       .  A
C203        N204   1.359       .  A
C203        C220   1.485       .  S
N204        C205   1.359       .  A
C205        N206   1.359       .  A
C207        N208   1.360       .  A
C207        N212   1.357       .  A
C207        C290   1.484       .  S
N208        C209   1.358       .  A
C209        N210   1.360       .  A
C209        C215   1.471       .  S
N210        C211   1.360       .  A
C211        N212   1.357       .  A
C211        C283   1.489       .  S
C213        N214   1.362       .  A
C213        N218   1.361       .  A
C213        C273   1.491       .  S
N214        C215   1.360       .  A
C215        N216   1.356       .  A
N216        C217   1.357       .  A
C217        N218   1.360       .  A
C217        C260   1.487       .  S
C219        C816   1.407       .  A
C219        C224   1.397       .  A
C219        H226   1.083       .  S
C220        C815   1.407   1_455  A
C220        C221   1.410       .  A
C221        C222   1.399       .  A
C221        F228   1.357       .  S
C222        C223   1.405   1_455  A
C222        H227   1.083       .  S
C223        C820   1.406       .  A
C224        C819   1.406       .  A
C224        F225   1.357       .  S
C229        C230   1.405   1_655  A
C229        C234   1.399       .  A
C229        H236   1.083       .  S
C230        C827   1.409       .  A
C231        C826   1.409       .  A
C231        C232   1.397       .  A
C231        F238   1.357       .  S
C232        C829   1.404       .  A
C232        H237   1.083       .  S
C233        C755   1.481       .  S
C233        C828   1.404       .  A
C233        C234   1.409   1_455  A
C234        F235   1.357       .  S
C239        C240   1.405   1_455  A
C239        C244   1.399       .  A
C239        H246   1.083       .  S
C240        C837   1.407       .  A
C241        C836   1.407       .  A
C241        C242   1.397       .  A
C241        F248   1.357       .  S
C242        C839   1.406       .  A
C242        H247   1.083       .  S
C243        C838   1.406   1_455  A
C243        C244   1.409       .  A
C244        F245   1.357       .  S
C249        C250   1.402       .  A
C249        C254   1.398       .  A
C249        H256   1.083       .  S
C250        C765   1.481       .  S
C250        C251   1.408   1_455  A
C251        C252   1.400       .  A
C251        F258   1.357       .  S
C252        C253   1.407   1_655  A
C252        H257   1.083       .  S
C253        C254   1.412       .  A
C254        F255   1.357       .  S
C259        C260   1.406       .  A
C259        C264   1.397       .  A
C259        H266   1.083       .  S
C260        C261   1.412       .  A
C261        C262   1.399       .  A
C261        F268   1.357       .  S
C262        C263   1.403       .  A
C262        H267   1.083       .  S
C263        C478   1.479       .  S
C263        C264   1.407       .  A
C264        F265   1.357       .  S
C269        C568   1.405   1_545  A
C269        C572   1.400       .  A
C269        H276   1.083       .  S
C270        C567   1.405       .  A
C270        C271   1.407       .  A
C271        C272   1.400       .  A
C271        F278   1.357       .  S
C272        C273   1.409       .  A
C272        H277   1.083       .  S
C273        C274   1.411       .  A
C274        C567   1.400       .  A
C274        F573   1.357       .  S
F275        C572   1.357       .  S
C279        C280   1.401       .  A
C279        C284   1.397       .  A
C279        H584   1.084       .  S
C280        C492   1.477       .  S
C280        C281   1.406       .  A
C281        C282   1.400       .  A
C281        F288   1.357       .  S
C282        C283   1.408       .  A
C282        H287   1.083       .  S
C283        C284   1.413       .  A
C284        F285   1.357       .  S
H286        C577   1.084       .  S
C289        C290   1.405       .  A
C289        C294   1.398       .  A
C289        H296   1.083       .  S
C290        C589   1.411       .  A
C291        C588   1.411       .  A
C291        C292   1.396       .  A
C291        F298   1.357       .  S
C292        C591   1.402       .  A
C292        H297   1.083       .  S
C293        C590   1.402       .  A
C293        C294   1.408       .  A
C294        F295   1.357       .  S
N299        N305   1.316       .  A
N299       Mn328   2.205       .  S
N301        N303   1.316       .  A
N301        N302   1.320       .  A
N301       Mn466   2.207       .  S
N302        C904   1.354       .  A
N303        N900   1.320   1_455  A
N303       Mn328   2.198       .  S
N304        N899   1.320       .  A
N304        C308   1.353       .  A
N305        N306   1.322       .  A
N305       Mn466   2.213       .  S
N306        C307   1.355       .  A
C307        C419   1.484       .  S
C308        N898   1.354       .  A
C308        C978   1.481       .  S
N309        N315   1.316       .  A
N309        N906   1.320   1_455  A
N309       Mn637   2.196       .  S
N310        N905   1.320       .  A
N310        C318   1.352       .  A
N311        N312   1.320       .  A
N311        N313   1.315       .  A
N311       Mn317   2.205   1_554  S
N312        C319   1.354       .  A
N313       Mn637   2.193       .  S
N315        N316   1.321       .  A
N315       Mn317   2.213   1_554  S
N316        C914   1.355       .  A
Mn317       N450   2.207       .  S
Mn317       N454   2.213       .  S
C318        N912   1.355       .  A
C318        C995   1.481       .  S
C319        C442   1.478       .  S
N320        N326   1.316       .  A
N320       Mn626   2.206       .  S
N322        N324   1.315       .  A
N322        N323   1.320       .  A
N322       Mn340   2.204       .  S
N323        C926   1.354       .  A
N324        N921   1.320       .  A
N324       Mn626   2.197       .  S
N325        N920   1.320   1_455  A
N325        C330   1.353   1_455  A
N326        N327   1.319       .  A
N326       Mn340   2.197       .  S
N327        C329   1.351       .  A
Mn328       N618   2.206   1_465  S
Mn328       N622   2.197   1_465  S
C330        N919   1.354       .  A
C330        C372   1.480       .  S
N331        N928   1.321       .  A
N331        N337   1.315       .  A
N331       Mn339   2.198       .  S
N332        N927   1.321   1_455  A
N332        C342   1.354   1_455  A
N333        N334   1.320       .  A
N333        N335   1.315       .  A
N333       Mn489   2.205       .  S
N334        C343   1.354       .  A
N335       Mn339   2.197       .  S
N337        N338   1.320       .  A
N337       Mn489   2.202       .  S
N338        C938   1.353       .  A
Mn339       N607   2.196       .  S
Mn339       N611   2.193       .  S
Mn339      Cl937   2.553   1_554  S
Mn340       N482   2.205       .  S
Mn340       N486   2.202       .  S
Mn340     Cl1086   2.535       .  S
Cl341      Mn935   2.553   1_556  S
Cl341     Mn1085   2.535   1_456  S
C342        N934   1.353       .  A
C342        C389   1.480       .  S
C344        N345   1.358       .  A
C344        N349   1.361       .  A
C344        C402   1.488       .  S
N345        C346   1.358       .  A
C346        N347   1.358       .  A
C346        C392   1.484       .  S
N347        C348   1.358       .  A
C348        N349   1.360       .  A
C348        C354   1.471       .  S
C350        N351   1.358       .  A
C350        N355   1.360       .  A
C350        C379   1.482       .  S
N351        C352   1.358       .  A
C352        N353   1.359       .  A
C352        C369   1.485       .  S
N353        C354   1.359       .  A
C354        N355   1.359       .  A
C356        N357   1.360       .  A
C356        N361   1.357   1_545  A
C356        C439   1.484   1_545  S
N357        C358   1.358       .  A
C358        N359   1.360       .  A
C358        C364   1.471       .  S
N359        C360   1.360   1_545  A
C360        N361   1.357       .  A
C360        C432   1.489       .  S
C362        N363   1.362       .  A
C362        N367   1.361       .  A
C362        C422   1.491       .  S
N363        C364   1.360       .  A
C364        N365   1.356       .  A
N365        C366   1.357       .  A
C366        N367   1.360       .  A
C366        C409   1.487       .  S
C368        C965   1.407       .  A
C368        C373   1.397       .  A
C368        H375   1.083       .  S
C369        C964   1.407   1_455  A
C369        C370   1.410       .  A
C370        C371   1.399       .  A
C370        F377   1.357       .  S
C371        C372   1.405   1_455  A
C371        H376   1.083       .  S
C372        C969   1.406       .  A
C373        C968   1.406       .  A
C373        F374   1.357       .  S
C378        C379   1.405   1_655  A
C378        C383   1.399       .  A
C378        H385   1.083       .  S
C379        C976   1.409       .  A
C380        C975   1.409       .  A
C380        C381   1.397       .  A
C380        F387   1.357       .  S
C381        C978   1.404       .  A
C381        H386   1.083       .  S
C382        C904   1.481       .  S
C382        C977   1.404       .  A
C382        C383   1.409   1_455  A
C383        F384   1.357       .  S
C388        C389   1.405   1_455  A
C388        C393   1.399       .  A
C388        H395   1.083       .  S
C389        C986   1.407       .  A
C390        C985   1.407       .  A
C390        C391   1.397       .  A
C390        F397   1.357       .  S
C391        C988   1.406       .  A
C391        H396   1.083       .  S
C392        C987   1.406   1_455  A
C392        C393   1.409       .  A
C393        F394   1.357       .  S
C398        C399   1.402       .  A
C398        C403   1.398       .  A
C398        H405   1.083       .  S
C399        C914   1.481       .  S
C399        C400   1.408   1_455  A
C400        C401   1.400       .  A
C400        F407   1.357       .  S
C401        C402   1.407   1_655  A
C401        H406   1.083       .  S
C402        C403   1.412       .  A
C403        F404   1.357       .  S
C408        C409   1.406       .  A
C408        C413   1.397       .  A
C408        H415   1.083       .  S
C409        C410   1.412   1_545  A
C410        C411   1.399       .  A
C410        F417   1.357       .  S
C411        C412   1.403   1_565  A
C411        H416   1.083       .  S
C412        C413   1.407       .  A
C413        F414   1.357       .  S
C418        H425   1.083       .  S
C419        C420   1.407       .  A
C420        C421   1.400       .  A
C420        F427   1.357       .  S
C421        C422   1.409   1_565  A
C421        H426   1.083       .  S
C422        C423   1.411       .  A
C428        C429   1.401   1_545  A
C428        C433   1.397       .  A
C429        C430   1.406       .  A
C430        C431   1.400       .  A
C430        F437   1.357       .  S
C431        C432   1.408       .  A
C431        H436   1.083       .  S
C432        C433   1.413   1_565  A
C433        F434   1.357       .  S
C438        C439   1.405   1_545  A
C438        C443   1.398       .  A
C438        H445   1.083       .  S
C440        C441   1.396       .  A
C440        F447   1.357       .  S
C441        H446   1.083       .  S
C442        C443   1.408   1_565  A
C443        F444   1.357       .  S
N448        N454   1.316       .  A
N448       Mn477   2.205       .  S
N450        N452   1.316       .  A
N450        N451   1.320       .  A
N451       C1053   1.354       .  A
N452       N1049   1.320   1_455  A
N452       Mn477   2.198       .  S
N453       N1048   1.320       .  A
N453        C457   1.353       .  A
N454        N455   1.322       .  A
N455        C456   1.355       .  A
C456        C568   1.484       .  S
C457       N1047   1.354       .  A
C457       C1127   1.481       .  S
N458        N464   1.316       .  A
N458       N1055   1.320   1_455  A
N458       Mn786   2.196       .  S
N459       N1054   1.320       .  A
N459        C467   1.352       .  A
N460        N461   1.320       .  A
N460        N462   1.315       .  A
N460       Mn466   2.205       .  S
N461        C468   1.354       .  A
N462       Mn786   2.193       .  S
N464        N465   1.321       .  A
N464       Mn466   2.213       .  S
N465       C1063   1.355       .  A
C467       N1061   1.355       .  A
C467       C1144   1.481       .  S
C468        C591   1.478       .  S
N469        N475   1.316       .  A
N469       Mn775   2.206       .  S
N471        N473   1.315       .  A
N471        N472   1.320       .  A
N471       Mn489   2.204   1_556  S
N472       C1075   1.354       .  A
N473       N1070   1.320       .  A
N473       Mn775   2.197       .  S
N474       N1069   1.320   1_455  A
N474        C479   1.353   1_455  A
N475        N476   1.319       .  A
N475       Mn489   2.197   1_556  S
N476        C478   1.351       .  A
Mn477       N767   2.206   1_465  S
Mn477       N771   2.197   1_465  S
C479       N1068   1.354       .  A
C479        C521   1.480       .  S
N480       N1077   1.321       .  A
N480        N486   1.315       .  A
N480       Mn488   2.198       .  S
N481       N1076   1.321   1_455  A
N481        C491   1.354   1_455  A
N482        N483   1.320       .  A
N482        N484   1.315       .  A
N483        C492   1.354       .  A
N484       Mn488   2.197       .  S
N486        N487   1.320       .  A
N487       C1087   1.353       .  A
Mn488       N756   2.196       .  S
Mn488       N760   2.193       .  S
Mn488     Cl1086   2.553       .  S
Mn489      Cl937   2.535   1_554  S
Cl490     Mn1084   2.553       .  S
Cl490      Mn936   2.535   1_455  S
C491       N1083   1.353       .  A
C491        C538   1.480       .  S
C493        N494   1.358       .  A
C493        N498   1.361       .  A
C493        C551   1.488       .  S
N494        C495   1.358       .  A
C495        N496   1.358       .  A
C495        C541   1.484       .  S
N496        C497   1.358       .  A
C497        N498   1.360       .  A
C497        C503   1.471       .  S
C499        N500   1.358       .  A
C499        N504   1.360       .  A
C499        C528   1.482       .  S
N500        C501   1.358       .  A
C501        N502   1.359       .  A
C501        C518   1.485       .  S
N502        C503   1.359       .  A
C503        N504   1.359       .  A
C505        N506   1.360       .  A
C505        N510   1.357   1_545  A
C505        C588   1.484   1_545  S
N506        C507   1.358       .  A
C507        N508   1.360       .  A
C507        C513   1.471       .  S
N508        C509   1.360   1_545  A
C509        N510   1.357       .  A
C509        C581   1.489       .  S
C511        N512   1.362       .  A
C511        N516   1.361       .  A
C511        C571   1.491       .  S
N512        C513   1.360       .  A
C513        N514   1.356       .  A
N514        C515   1.357       .  A
C515        N516   1.360       .  A
C515        C558   1.487       .  S
C517       C1114   1.407       .  A
C517        C522   1.397       .  A
C517        H524   1.083       .  S
C518       C1113   1.407   1_455  A
C518        C519   1.410       .  A
C519        C520   1.399       .  A
C519        F526   1.357       .  S
C520        C521   1.405   1_455  A
C520        H525   1.083       .  S
C521       C1118   1.406       .  A
C522       C1117   1.406       .  A
C522        F523   1.357       .  S
C527        C528   1.405   1_655  A
C527        C532   1.399       .  A
C527        H534   1.083       .  S
C528       C1125   1.409       .  A
C529       C1124   1.409       .  A
C529        C530   1.397       .  A
C529        F536   1.357       .  S
C530       C1127   1.404       .  A
C530        H535   1.083       .  S
C531       C1053   1.481       .  S
C531       C1126   1.404       .  A
C531        C532   1.409   1_455  A
C532        F533   1.357       .  S
C537        C538   1.405   1_455  A
C537        C542   1.399       .  A
C537        H544   1.083       .  S
C538       C1135   1.407       .  A
C539       C1134   1.407       .  A
C539        C540   1.397       .  A
C539        F546   1.357       .  S
C540       C1137   1.406       .  A
C540        H545   1.083       .  S
C541       C1136   1.406   1_455  A
C541        C542   1.409       .  A
C542        F543   1.357       .  S
C547        C548   1.402       .  A
C547        C552   1.398       .  A
C547        H554   1.083       .  S
C548       C1063   1.481       .  S
C548        C549   1.408   1_455  A
C549        C550   1.400       .  A
C549        F556   1.357       .  S
C550        C551   1.407   1_655  A
C550        H555   1.083       .  S
C551        C552   1.412       .  A
C552        F553   1.357       .  S
C557        C558   1.406       .  A
C557        C562   1.397       .  A
C557        H564   1.083       .  S
C558        C559   1.412   1_545  A
C559        C560   1.399       .  A
C559        F566   1.357       .  S
C560        C561   1.403   1_565  A
C560        H565   1.083       .  S
C561        C562   1.407       .  A
C562        F563   1.357       .  S
C567        H574   1.083       .  S
C568        C569   1.407       .  A
C569        C570   1.400       .  A
C569        F576   1.357       .  S
C570        C571   1.409   1_565  A
C570        H575   1.083       .  S
C571        C572   1.411       .  A
C577        C578   1.401   1_545  A
C577        C582   1.397       .  A
C578        C579   1.406       .  A
C579        C580   1.400       .  A
C579        F586   1.357       .  S
C580        C581   1.408       .  A
C580        H585   1.083       .  S
C581        C582   1.413   1_565  A
C582        F583   1.357       .  S
C587        C588   1.405   1_545  A
C587        C592   1.398       .  A
C587        H594   1.083       .  S
C589        C590   1.396       .  A
C589        F596   1.357       .  S
C590        H595   1.083       .  S
C591        C592   1.408   1_565  A
C592        F593   1.357       .  S
N597        N896   1.321       .  A
N597        N603   1.316       .  A
N597       Mn626   2.205       .  S
N598        N895   1.321   1_545  A
N598        C903   1.354   1_545  A
N599        N601   1.316       .  A
N599        N600   1.320       .  A
N599       Mn764   2.207       .  S
N601       Mn626   2.198       .  S
N602        C606   1.353   1_655  A
N603        N604   1.322       .  A
N603       Mn764   2.213       .  S
N604        C605   1.355       .  A
C605        N896   1.354       .  A
C605        C717   1.484       .  S
N607        N613   1.316       .  A
N608        C616   1.352   1_655  A
N609        N610   1.320       .  A
N609        N611   1.315       .  A
N609       Mn615   2.205   1_554  S
N610        C617   1.354       .  A
N611        N910   1.319       .  A
N612        N909   1.319   1_545  A
N612        C915   1.352   1_545  A
N613        N614   1.321       .  A
N613       Mn615   2.213   1_554  S
Mn615       N748   2.207       .  S
Mn615       N752   2.213       .  S
Mn615      Cl937   2.541       .  S
C617        N910   1.352       .  A
C617        C740   1.478       .  S
N618        N917   1.322   1_545  A
N618        N624   1.316       .  A
N619        N916   1.322       .  A
N619        C925   1.355       .  A
N620        N622   1.315       .  A
N620        N621   1.320       .  A
N620       Mn638   2.204       .  S
N623        C628   1.353       .  A
N624        N625   1.319       .  A
N624       Mn638   2.197       .  S
N625        C627   1.351       .  A
Mn626     Cl1086   2.554       .  S
C627        N917   1.355   1_545  A
C627       C1008   1.479       .  S
C628        C670   1.480       .  S
N629        N635   1.315       .  A
N629       Mn637   2.198   1_645  S
N630        C640   1.354       .  A
N631        N632   1.320       .  A
N631        N633   1.315       .  A
N631       Mn787   2.205       .  S
N632        C641   1.354       .  A
N633        N932   1.321   1_545  A
N633       Mn637   2.197   1_645  S
N634        N931   1.321       .  A
N634        C939   1.353       .  A
N635        N636   1.320       .  A
N635       Mn787   2.202       .  S
Mn638       N780   2.205       .  S
Mn638       N784   2.202       .  S
Cl639      Mn913   2.541       .  S
Cl639     Mn1073   2.554       .  S
C640        C687   1.480       .  S
C641        N932   1.353   1_545  A
C641       C1025   1.477   1_545  S
C642        N643   1.358       .  A
C642        N647   1.361       .  A
C642        C700   1.488       .  S
N643        C644   1.358       .  A
C644        N645   1.358       .  A
C644        C690   1.484       .  S
N645        C646   1.358       .  A
C646        N647   1.360       .  A
C646        C652   1.471       .  S
C648        N649   1.358       .  A
C648        N653   1.360       .  A
C648        C677   1.482       .  S
N649        C650   1.358       .  A
C650        N651   1.359       .  A
C650        C667   1.485       .  S
N651        C652   1.359       .  A
C652        N653   1.359       .  A
C654        N655   1.360       .  A
C654        N659   1.357       .  A
C654        C737   1.484       .  S
N655        C656   1.358       .  A
C656        N657   1.360       .  A
C656        C662   1.471       .  S
N657        C658   1.360       .  A
C658        N659   1.357       .  A
C658        C730   1.489       .  S
C660        N661   1.362       .  A
C660        N665   1.361       .  A
C660        C720   1.491       .  S
N661        C662   1.360       .  A
C662        N663   1.356       .  A
N663        C664   1.357       .  A
C664        N665   1.360       .  A
C664        C707   1.487       .  S
C666        C671   1.397       .  A
C666        H673   1.083       .  S
C667        C668   1.410       .  A
C668        C669   1.399       .  A
C668        F675   1.357       .  S
C669        C670   1.405       .  A
C669        H674   1.083       .  S
C671        F672   1.357       .  S
C676        C677   1.405       .  A
C676        C681   1.399       .  A
C676        H683   1.083       .  S
C678        C679   1.397       .  A
C678        F685   1.357       .  S
C679        H684   1.083       .  S
C680        C681   1.409       .  A
C681        F682   1.357       .  S
C686        C687   1.405       .  A
C686        C691   1.399       .  A
C686        H693   1.083       .  S
C688        C689   1.397       .  A
C688        F695   1.357       .  S
C689        H694   1.083       .  S
C690        C691   1.409       .  A
C691        F692   1.357       .  S
C696        C697   1.402       .  A
C696        C701   1.398       .  A
C696        H703   1.083       .  S
C697        C698   1.408       .  A
C698        C699   1.400       .  A
C698        F705   1.357       .  S
C699        C700   1.407       .  A
C699        H704   1.083       .  S
C700        C701   1.412       .  A
C701        F702   1.357       .  S
C706        C707   1.406       .  A
C706        C711   1.397       .  A
C706        H713   1.083       .  S
C707        C708   1.412       .  A
C708        C709   1.399       .  A
C708        F715   1.357       .  S
C709        C710   1.403       .  A
C709        H714   1.083       .  S
C710        C925   1.479       .  S
C710        C711   1.407       .  A
C711        F712   1.357       .  S
C716       C1015   1.405   1_545  A
C716       C1019   1.400       .  A
C716        H723   1.083       .  S
C717       C1014   1.405       .  A
C717        C718   1.407       .  A
C718        C719   1.400       .  A
C718        F725   1.357       .  S
C719        C720   1.409       .  A
C719        H724   1.083       .  S
C720        C721   1.411       .  A
C721       C1014   1.400       .  A
C721       F1020   1.357       .  S
F722       C1019   1.357       .  S
C726        C727   1.401       .  A
C726        C731   1.397       .  A
C726       H1031   1.084       .  S
C727        C939   1.477       .  S
C727        C728   1.406       .  A
C728        C729   1.400       .  A
C728        F735   1.357       .  S
C729        C730   1.408       .  A
C729        H734   1.083       .  S
C730        C731   1.413       .  A
C731        F732   1.357       .  S
H733       C1024   1.084       .  S
C736        C737   1.405       .  A
C736        C741   1.398       .  A
C736        H743   1.083       .  S
C737       C1036   1.411       .  A
C738       C1035   1.411       .  A
C738        C739   1.396       .  A
C738        F745   1.357       .  S
C739       C1038   1.402       .  A
C739        H744   1.083       .  S
C740       C1037   1.402       .  A
C740        C741   1.408       .  A
C741        F742   1.357       .  S
N746       N1045   1.321       .  A
N746        N752   1.316       .  A
N746       Mn775   2.205       .  S
N747       N1044   1.321   1_545  A
N747       C1052   1.354   1_545  A
N748        N750   1.316       .  A
N748        N749   1.320       .  A
N750       Mn775   2.198       .  S
N751        C755   1.353   1_655  A
N752        N753   1.322       .  A
N753        C754   1.355       .  A
C754       N1045   1.354       .  A
C754        C866   1.484       .  S
N756        N762   1.316       .  A
N757        C765   1.352   1_655  A
N758        N759   1.320       .  A
N758        N760   1.315       .  A
N758       Mn764   2.205       .  S
N759        C766   1.354       .  A
N760       N1059   1.319       .  A
N761       N1058   1.319   1_545  A
N761       C1064   1.352   1_545  A
N762        N763   1.321       .  A
N762       Mn764   2.213       .  S
Mn764     Cl1086   2.541       .  S
C766       N1059   1.352       .  A
C766        C889   1.478       .  S
N767       N1066   1.322   1_545  A
N767        N773   1.316       .  A
N768       N1065   1.322       .  A
N768       C1074   1.355       .  A
N769        N771   1.315       .  A
N769        N770   1.320       .  A
N769       Mn787   2.204   1_556  S
N772        C777   1.353       .  A
N773        N774   1.319       .  A
N773       Mn787   2.197   1_556  S
N774        C776   1.351       .  A
Mn775      Cl937   2.554       .  S
C776       N1066   1.355   1_545  A
C776       C1157   1.479       .  S
C777        C819   1.480       .  S
N778        N784   1.315       .  A
N778       Mn786   2.198   1_645  S
N779        C789   1.354       .  A
N780        N781   1.320       .  A
N780        N782   1.315       .  A
N781        C790   1.354       .  A
N782       N1081   1.321   1_545  A
N782       Mn786   2.197   1_645  S
N783       N1080   1.321       .  A
N783       C1088   1.353       .  A
N784        N785   1.320       .  A
Cl788     Mn1062   2.541       .  S
Cl788      Mn924   2.554       .  S
C789        C836   1.480       .  S
C790       N1081   1.353   1_545  A
C790       C1174   1.477   1_545  S
C791        N792   1.358       .  A
C791        N796   1.361       .  A
C791        C849   1.488       .  S
N792        C793   1.358       .  A
C793        N794   1.358       .  A
C793        C839   1.484       .  S
N794        C795   1.358       .  A
C795        N796   1.360       .  A
C795        C801   1.471       .  S
C797        N798   1.358       .  A
C797        N802   1.360       .  A
C797        C826   1.482       .  S
N798        C799   1.358       .  A
C799        N800   1.359       .  A
C799        C816   1.485       .  S
N800        C801   1.359       .  A
C801        N802   1.359       .  A
C803        N804   1.360       .  A
C803        N808   1.357       .  A
C803        C886   1.484       .  S
N804        C805   1.358       .  A
C805        N806   1.360       .  A
C805        C811   1.471       .  S
N806        C807   1.360       .  A
C807        N808   1.357       .  A
C807        C879   1.489       .  S
C809        N810   1.362       .  A
C809        N814   1.361       .  A
C809        C869   1.491       .  S
N810        C811   1.360       .  A
C811        N812   1.356       .  A
N812        C813   1.357       .  A
C813        N814   1.360       .  A
C813        C856   1.487       .  S
C815        C820   1.397       .  A
C815        H822   1.083       .  S
C816        C817   1.410       .  A
C817        C818   1.399       .  A
C817        F824   1.357       .  S
C818        C819   1.405       .  A
C818        H823   1.083       .  S
C820        F821   1.357       .  S
C825        C826   1.405       .  A
C825        C830   1.399       .  A
C825        H832   1.083       .  S
C827        C828   1.397       .  A
C827        F834   1.357       .  S
C828        H833   1.083       .  S
C829        C830   1.409       .  A
C830        F831   1.357       .  S
C835        C836   1.405       .  A
C835        C840   1.399       .  A
C835        H842   1.083       .  S
C837        C838   1.397       .  A
C837        F844   1.357       .  S
C838        H843   1.083       .  S
C839        C840   1.409       .  A
C840        F841   1.357       .  S
C845        C846   1.402       .  A
C845        C850   1.398       .  A
C845        H852   1.083       .  S
C846        C847   1.408       .  A
C847        C848   1.400       .  A
C847        F854   1.357       .  S
C848        C849   1.407       .  A
C848        H853   1.083       .  S
C849        C850   1.412       .  A
C850        F851   1.357       .  S
C855        C856   1.406       .  A
C855        C860   1.397       .  A
C855        H862   1.083       .  S
C856        C857   1.412       .  A
C857        C858   1.399       .  A
C857        F864   1.357       .  S
C858        C859   1.403       .  A
C858        H863   1.083       .  S
C859       C1074   1.479       .  S
C859        C860   1.407       .  A
C860        F861   1.357       .  S
C865       C1164   1.405   1_545  A
C865       C1168   1.400       .  A
C865        H872   1.083       .  S
C866       C1163   1.405       .  A
C866        C867   1.407       .  A
C867        C868   1.400       .  A
C867        F874   1.357       .  S
C868        C869   1.409       .  A
C868        H873   1.083       .  S
C869        C870   1.411       .  A
C870       C1163   1.400       .  A
C870       F1169   1.357       .  S
F871       C1168   1.357       .  S
C875        C876   1.401       .  A
C875        C880   1.397       .  A
C875       H1180   1.084       .  S
C876       C1088   1.477       .  S
C876        C877   1.406       .  A
C877        C878   1.400       .  A
C877        F884   1.357       .  S
C878        C879   1.408       .  A
C878        H883   1.083       .  S
C879        C880   1.413       .  A
C880        F881   1.357       .  S
H882       C1173   1.084       .  S
C885        C886   1.405       .  A
C885        C890   1.398       .  A
C885        H892   1.083       .  S
C886       C1185   1.411       .  A
C887       C1184   1.411       .  A
C887        C888   1.396       .  A
C887        F894   1.357       .  S
C888       C1187   1.402       .  A
C888        H893   1.083       .  S
C889       C1186   1.402       .  A
C889        C890   1.408       .  A
C890        F891   1.357       .  S
N895        N901   1.316       .  A
N895       Mn924   2.205       .  S
N897        N899   1.316       .  A
N897        N898   1.320       .  A
N897      Mn1062   2.207       .  S
N899       Mn924   2.198       .  S
N900        C904   1.353   1_655  A
N901        N902   1.322       .  A
N901      Mn1062   2.213       .  S
N902        C903   1.355       .  A
C903       C1015   1.484       .  S
N905        N911   1.316       .  A
N906        C914   1.352   1_655  A
N907        N908   1.320       .  A
N907        N909   1.315       .  A
N907       Mn913   2.205   1_554  S
N908        C915   1.354       .  A
N911        N912   1.321       .  A
N911       Mn913   2.213   1_554  S
Mn913      N1046   2.207       .  S
Mn913      N1050   2.213       .  S
C915       C1038   1.478       .  S
N916        N922   1.316       .  A
N918        N920   1.315       .  A
N918        N919   1.320       .  A
N918       Mn936   2.204       .  S
N921        C926   1.353       .  A
N922        N923   1.319       .  A
N922       Mn936   2.197       .  S
N923        C925   1.351       .  A
C926        C968   1.480       .  S
N927        N933   1.315       .  A
N927       Mn935   2.198   1_655  S
N928        C938   1.354       .  A
N929        N930   1.320       .  A
N929        N931   1.315       .  A
N929      Mn1085   2.205       .  S
N930        C939   1.354       .  A
N931       Mn935   2.197   1_655  S
N933        N934   1.320       .  A
N933      Mn1085   2.202       .  S
Mn936      N1078   2.205       .  S
Mn936      N1082   2.202       .  S
C938        C985   1.480       .  S
C940        N941   1.358       .  A
C940        N945   1.361       .  A
C940        C998   1.488       .  S
N941        C942   1.358       .  A
C942        N943   1.358       .  A
C942        C988   1.484       .  S
N943        C944   1.358       .  A
C944        N945   1.360       .  A
C944        C950   1.471       .  S
C946        N947   1.358       .  A
C946        N951   1.360       .  A
C946        C975   1.482       .  S
N947        C948   1.358       .  A
C948        N949   1.359       .  A
C948        C965   1.485       .  S
N949        C950   1.359       .  A
C950        N951   1.359       .  A
C952        N953   1.360       .  A
C952        N957   1.357   1_545  A
C952       C1035   1.484   1_545  S
N953        C954   1.358       .  A
C954        N955   1.360       .  A
C954        C960   1.471       .  S
N955        C956   1.360   1_545  A
C956        N957   1.357       .  A
C956       C1028   1.489       .  S
C958        N959   1.362       .  A
C958        N963   1.361       .  A
C958       C1018   1.491       .  S
N959        C960   1.360       .  A
C960        N961   1.356       .  A
N961        C962   1.357       .  A
C962        N963   1.360       .  A
C962       C1005   1.487       .  S
C964        C969   1.397       .  A
C964        H971   1.083       .  S
C965        C966   1.410       .  A
C966        C967   1.399       .  A
C966        F973   1.357       .  S
C967        C968   1.405       .  A
C967        H972   1.083       .  S
C969        F970   1.357       .  S
C974        C975   1.405       .  A
C974        C979   1.399       .  A
C974        H981   1.083       .  S
C976        C977   1.397       .  A
C976        F983   1.357       .  S
C977        H982   1.083       .  S
C978        C979   1.409       .  A
C979        F980   1.357       .  S
C984        C985   1.405       .  A
C984        C989   1.399       .  A
C984        H991   1.083       .  S
C986        C987   1.397       .  A
C986        F993   1.357       .  S
C987        H992   1.083       .  S
C988        C989   1.409       .  A
C989        F990   1.357       .  S
C994        C995   1.402       .  A
C994        C999   1.398       .  A
C994       H1001   1.083       .  S
C995        C996   1.408       .  A
C996        C997   1.400       .  A
C996       F1003   1.357       .  S
C997        C998   1.407       .  A
C997       H1002   1.083       .  S
C998        C999   1.412       .  A
C999       F1000   1.357       .  S
C1004      C1005   1.406       .  A
C1004      C1009   1.397       .  A
C1004      H1011   1.083       .  S
C1005      C1006   1.412   1_545  A
C1006      C1007   1.399       .  A
C1006      F1013   1.357       .  S
C1007      C1008   1.403   1_565  A
C1007      H1012   1.083       .  S
C1008      C1009   1.407       .  A
C1009      F1010   1.357       .  S
C1014      H1021   1.083       .  S
C1015      C1016   1.407       .  A
C1016      C1017   1.400       .  A
C1016      F1023   1.357       .  S
C1017      C1018   1.409   1_565  A
C1017      H1022   1.083       .  S
C1018      C1019   1.411       .  A
C1024      C1025   1.401   1_545  A
C1024      C1029   1.397       .  A
C1025      C1026   1.406       .  A
C1026      C1027   1.400       .  A
C1026      F1033   1.357       .  S
C1027      C1028   1.408       .  A
C1027      H1032   1.083       .  S
C1028      C1029   1.413   1_565  A
C1029      F1030   1.357       .  S
C1034      C1035   1.405   1_545  A
C1034      C1039   1.398       .  A
C1034      H1041   1.083       .  S
C1036      C1037   1.396       .  A
C1036      F1043   1.357       .  S
C1037      H1042   1.083       .  S
C1038      C1039   1.408   1_565  A
C1039      F1040   1.357       .  S
N1044      N1050   1.316       .  A
N1044     Mn1073   2.205       .  S
N1046      N1048   1.316       .  A
N1046      N1047   1.320       .  A
N1048     Mn1073   2.198       .  S
N1049      C1053   1.353   1_655  A
N1050      N1051   1.322       .  A
N1051      C1052   1.355       .  A
C1052      C1164   1.484       .  S
N1054      N1060   1.316       .  A
N1055      C1063   1.352   1_655  A
N1056      N1057   1.320       .  A
N1056      N1058   1.315       .  A
N1056     Mn1062   2.205       .  S
N1057      C1064   1.354       .  A
N1060      N1061   1.321       .  A
N1060     Mn1062   2.213       .  S
C1064      C1187   1.478       .  S
N1065      N1071   1.316       .  A
N1067      N1069   1.315       .  A
N1067      N1068   1.320       .  A
N1067     Mn1085   2.204   1_556  S
N1070      C1075   1.353       .  A
N1071      N1072   1.319       .  A
N1071     Mn1085   2.197   1_556  S
N1072      C1074   1.351       .  A
C1075      C1117   1.480       .  S
N1076      N1082   1.315       .  A
N1076     Mn1084   2.198   1_655  S
N1077      C1087   1.354       .  A
N1078      N1079   1.320       .  A
N1078      N1080   1.315       .  A
N1079      C1088   1.354       .  A
N1080     Mn1084   2.197   1_655  S
N1082      N1083   1.320       .  A
C1087      C1134   1.480       .  S
C1089      N1090   1.358       .  A
C1089      N1094   1.361       .  A
C1089      C1147   1.488       .  S
N1090      C1091   1.358       .  A
C1091      N1092   1.358       .  A
C1091      C1137   1.484       .  S
N1092      C1093   1.358       .  A
C1093      N1094   1.360       .  A
C1093      C1099   1.471       .  S
C1095      N1096   1.358       .  A
C1095      N1100   1.360       .  A
C1095      C1124   1.482       .  S
N1096      C1097   1.358       .  A
C1097      N1098   1.359       .  A
C1097      C1114   1.485       .  S
N1098      C1099   1.359       .  A
C1099      N1100   1.359       .  A
C1101      N1102   1.360       .  A
C1101      N1106   1.357   1_545  A
C1101      C1184   1.484   1_545  S
N1102      C1103   1.358       .  A
C1103      N1104   1.360       .  A
C1103      C1109   1.471       .  S
N1104      C1105   1.360   1_545  A
C1105      N1106   1.357       .  A
C1105      C1177   1.489       .  S
C1107      N1108   1.362       .  A
C1107      N1112   1.361       .  A
C1107      C1167   1.491       .  S
N1108      C1109   1.360       .  A
C1109      N1110   1.356       .  A
N1110      C1111   1.357       .  A
C1111      N1112   1.360       .  A
C1111      C1154   1.487       .  S
C1113      C1118   1.397       .  A
C1113      H1120   1.083       .  S
C1114      C1115   1.410       .  A
C1115      C1116   1.399       .  A
C1115      F1122   1.357       .  S
C1116      C1117   1.405       .  A
C1116      H1121   1.083       .  S
C1118      F1119   1.357       .  S
C1123      C1124   1.405       .  A
C1123      C1128   1.399       .  A
C1123      H1130   1.083       .  S
C1125      C1126   1.397       .  A
C1125      F1132   1.357       .  S
C1126      H1131   1.083       .  S
C1127      C1128   1.409       .  A
C1128      F1129   1.357       .  S
C1133      C1134   1.405       .  A
C1133      C1138   1.399       .  A
C1133      H1140   1.083       .  S
C1135      C1136   1.397       .  A
C1135      F1142   1.357       .  S
C1136      H1141   1.083       .  S
C1137      C1138   1.409       .  A
C1138      F1139   1.357       .  S
C1143      C1144   1.402       .  A
C1143      C1148   1.398       .  A
C1143      H1150   1.083       .  S
C1144      C1145   1.408       .  A
C1145      C1146   1.400       .  A
C1145      F1152   1.357       .  S
C1146      C1147   1.407       .  A
C1146      H1151   1.083       .  S
C1147      C1148   1.412       .  A
C1148      F1149   1.357       .  S
C1153      C1154   1.406       .  A
C1153      C1158   1.397       .  A
C1153      H1160   1.083       .  S
C1154      C1155   1.412   1_545  A
C1155      C1156   1.399       .  A
C1155      F1162   1.357       .  S
C1156      C1157   1.403   1_565  A
C1156      H1161   1.083       .  S
C1157      C1158   1.407       .  A
C1158      F1159   1.357       .  S
C1163      H1170   1.083       .  S
C1164      C1165   1.407       .  A
C1165      C1166   1.400       .  A
C1165      F1172   1.357       .  S
C1166      C1167   1.409   1_565  A
C1166      H1171   1.083       .  S
C1167      C1168   1.411       .  A
C1173      C1174   1.401   1_545  A
C1173      C1178   1.397       .  A
C1174      C1175   1.406       .  A
C1175      C1176   1.400       .  A
C1175      F1182   1.357       .  S
C1176      C1177   1.408       .  A
C1176      H1181   1.083       .  S
C1177      C1178   1.413   1_565  A
C1178      F1179   1.357       .  S
C1183      C1184   1.405   1_545  A
C1183      C1188   1.398       .  A
C1183      H1190   1.083       .  S
C1185      C1186   1.396       .  A
C1185      F1192   1.357       .  S
C1186      H1191   1.083       .  S
C1187      C1188   1.408   1_565  A
C1188      F1189   1.357       .  S
