geometry optimzed in LAMMPS
_audit_creation_date              2020-12-01 
_audit_creation_method            'lammps2cif' 
_symmetry_space_group_name_H-M    'P1' 
_symmetry_Int_Tables_number       1 
_symmetry_cell_setting            triclinic 
loop_ 
_symmetry_equiv_pos_as_xyz 
  x,y,z 
_cell_length_a                    51.1767307 
_cell_length_b                    51.19573291260254 
_cell_length_c                    51.170344912593606 
_cell_angle_alpha                 90.01943861480336 
_cell_angle_beta                  89.97394652857189 
_cell_angle_gamma                 90.0185480780721 
loop_ 
_atom_site_label 
_atom_site_type_symbol 
_atom_site_fract_x 
_atom_site_fract_y 
_atom_site_fract_z 
_atom_site_charge 
N1          N  0.21792583  0.80291863  0.46000592    -0.26900
N2          N  0.19825180  0.81254218  0.44636742    -0.34700
C3          C  0.20117870  0.80556745  0.42113226     0.01400
C4          C  0.22390348  0.79101897  0.41903521     0.07500
C5          C  0.23402445  0.78989885  0.44399030    -0.05600
H6          H  0.18760510  0.81035893  0.40565958     0.08100
H7          H  0.25112223  0.77924832  0.45036801     0.09300
Cu8        Cu  0.16860749  0.83393212  0.46384985     0.44200
Cu9        Cu  0.22007986  0.80353785  0.50016418     0.42000
Cu10       Cu  0.16777741  0.83208491  0.53608603     0.43900
N11         N  0.14455954  0.85671084  0.48726427    -0.34300
N12         N  0.14431622  0.85624209  0.51314501    -0.28500
C13         C  0.12706864  0.87412043  0.52179936    -0.04600
C14         C  0.11603056  0.88640180  0.50039797     0.07600
C15         C  0.12752541  0.87485903  0.47885759     0.01400
H16         H  0.12295653  0.87795491  0.54218430     0.09000
H17         H  0.12391385  0.87940837  0.45852965     0.08100
N18         N  0.19535836  0.80751284  0.55320737    -0.35700
N19         N  0.21507151  0.79777746  0.53968840    -0.27900
C20         C  0.22990949  0.78294043  0.55539061    -0.03100
C21         C  0.21909303  0.78324127  0.58012343     0.05500
C22         C  0.19711323  0.79897760  0.57808089     0.03600
H23         H  0.24717121  0.77250118  0.54908894     0.08700
H24         H  0.18360785  0.80407734  0.59352811     0.07500
N25         N  0.89913102  0.08436048  0.45923874    -0.26900
N26         N  0.91901395  0.07478056  0.44583437    -0.34700
C27         C  0.91652185  0.08224780  0.42062746     0.01400
C28         C  0.89391522  0.09712489  0.41830811     0.07500
C29         C  0.88349043  0.09792638  0.44318735    -0.05600
H30         H  0.93015934  0.07734816  0.40523097     0.08100
H31         H  0.86613383  0.10822102  0.44945600     0.09300
Cu32       Cu  0.94801224  0.05220358  0.46387038     0.44200
Cu33       Cu  0.89499666  0.08105031  0.49917682     0.42000
Cu34       Cu  0.94532321  0.04954839  0.53622036     0.43900
N35         N  0.97207228  0.02876779  0.48731570    -0.34300
N36         N  0.97098750  0.02772485  0.51317585    -0.28500
C37         C  0.98849585  0.01003288  0.52175176    -0.04600
C38         C  0.00120132  0.99938388  0.50036657     0.07600
C39         C  0.99032660  0.01175213  0.47889705     0.01400
H40         H  0.99155792  0.00509966  0.54208050     0.09000
H41         H  0.99514903  0.00843602  0.45857732     0.08100
N42         N  0.91590374  0.07200190  0.55334788    -0.35700
N43         N  0.89688329  0.08247595  0.53939574    -0.27900
C44         C  0.88072171  0.09569473  0.55525478    -0.03100
C45         C  0.89002806  0.09373485  0.58050190     0.05500
C46         C  0.91244131  0.07860923  0.57864585     0.03600
H47         H  0.86391002  0.10668298  0.54868541     0.08700
H48         H  0.92528701  0.07290868  0.59442649     0.07500
N49         N  0.90508954  0.79766845  0.45801596    -0.26900
N50         N  0.92472969  0.80736234  0.44433070    -0.34700
C51         C  0.92137049  0.80096547  0.41897131     0.01400
C52         C  0.89836524  0.78680162  0.41681328     0.07500
C53         C  0.88861508  0.78519763  0.44190962    -0.05600
H54         H  0.93463570  0.80620405  0.40336072     0.08100
H55         H  0.87126031  0.77492930  0.44824854     0.09300
Cu56       Cu  0.95438491  0.82902260  0.46181971     0.44200
Cu57       Cu  0.90255403  0.79889025  0.49825666     0.42000
Cu58       Cu  0.95404869  0.82816125  0.53440834     0.43900
N59         N  0.97795170  0.85236722  0.48542978    -0.34300
N60         N  0.97779823  0.85205669  0.51132784    -0.28500
C61         C  0.99422913  0.87061336  0.52013985    -0.04600
C62         C  0.00511689  0.88328288  0.49888930     0.07600
C63         C  0.99446543  0.87114315  0.47720723     0.01400
H64         H  0.99762719  0.87488407  0.54056633     0.09000
H65         H  0.99806322  0.87591698  0.45692422     0.08100
N66         N  0.92515368  0.80536004  0.55206355    -0.35700
N67         N  0.90572799  0.79536027  0.53833096    -0.27900
C68         C  0.88981275  0.78190201  0.55426471    -0.03100
C69         C  0.89959082  0.78332889  0.57939940     0.05500
C70         C  0.92211096  0.79836272  0.57732687     0.03600
H71         H  0.87260367  0.77145698  0.54783320     0.08700
H72         H  0.93520722  0.80387732  0.59297439     0.07500
N73         N  0.51603471  0.78067367  0.13990187    -0.26900
N74         N  0.50253524  0.80047689  0.13034565    -0.34700
C75         C  0.47713754  0.79727367  0.13670256     0.01400
C76         C  0.47476529  0.77421409  0.15074544     0.07500
C77         C  0.49977939  0.76424583  0.15224319    -0.05600
H78         H  0.46169100  0.81081150  0.13173984     0.08100
H79         H  0.50597589  0.74688391  0.16256200     0.09300
Cu80       Cu  0.52061497  0.83045117  0.10965104     0.44200
Cu81       Cu  0.55629269  0.77823131  0.13926855     0.42000
Cu82       Cu  0.59329231  0.83006336  0.11148454     0.43900
N83         N  0.54477898  0.85498526  0.08795291    -0.34300
N84         N  0.57066520  0.85481305  0.08854793    -0.28500
C85         C  0.57973945  0.87244534  0.07127562    -0.04600
C86         C  0.55862934  0.88422225  0.05925946     0.07600
C87         C  0.53681114  0.87272581  0.07028742     0.01400
H88         H  0.60021526  0.87612361  0.06749305     0.09000
H89         H  0.51659176  0.87665993  0.06553947     0.08100
N90         N  0.61018968  0.80080137  0.13398625    -0.35700
N91         N  0.59629231  0.78132306  0.14364050    -0.27900
C92         C  0.61204195  0.76535130  0.15724189    -0.03100
C93         C  0.63716971  0.77519724  0.15614216     0.05500
C94         C  0.63531082  0.79774992  0.14124368     0.03600
H95         H  0.60550489  0.74807277  0.16749625     0.08700
H96         H  0.65098152  0.81097433  0.13610753     0.07500
N97         N  0.91682700  0.48034216  0.16185286    -0.26900
N98         N  0.92703068  0.49449352  0.14285323    -0.34700
C99         C  0.91835584  0.51925784  0.14522263     0.01400
C100        C  0.90197426  0.52050504  0.16680868     0.07500
C101        C  0.90155976  0.49547748  0.17685014    -0.05600
H102        H  0.92343398  0.53505410  0.13213736     0.08100
H103        H  0.89044050  0.48853024  0.19343703     0.09300
Cu104      Cu  0.95118841  0.47777788  0.11460303     0.44200
Cu105      Cu  0.92185377  0.44066174  0.16501194     0.42000
Cu106      Cu  0.95280920  0.40470433  0.11410040     0.43900
N107        N  0.97321702  0.45480796  0.08906267    -0.34300
N108        N  0.97348547  0.42891438  0.08881998    -0.28500
C109        C  0.98999056  0.42070912  0.07009133    -0.04600
C110        C  0.00065114  0.44232174  0.05795555     0.07600
C111        C  0.98963016  0.46361930  0.07045263     0.01400
H112        H  0.99424630  0.40042966  0.06592767     0.09000
H113        H  0.99349502  0.48402941  0.06655649     0.08100
N114        N  0.93192168  0.38677420  0.14396091    -0.35700
N115        N  0.92160278  0.40059992  0.16314579    -0.27900
C116        C  0.90899574  0.38467643  0.17961439    -0.03100
C117        C  0.91123107  0.35945869  0.17041807     0.05500
C118        C  0.92590500  0.36137864  0.14768321     0.03600
H119        H  0.89809854  0.39124312  0.19649567     0.08700
H120        H  0.93142236  0.34566544  0.13466333     0.07500
N121        N  0.91660992  0.48414484  0.84098971    -0.26900
N122        N  0.92785052  0.49764541  0.85989185    -0.34700
C123        C  0.92182764  0.52317684  0.85673559     0.01400
C124        C  0.90616229  0.52561042  0.83466513     0.07500
C125        C  0.90340821  0.50043229  0.82529034    -0.05600
H126        H  0.92820485  0.53870557  0.86957906     0.08100
H127        H  0.89199537  0.49419135  0.80863378     0.09300
Cu128      Cu  0.95027337  0.47887686  0.88850435     0.44200
Cu129      Cu  0.91753565  0.44390768  0.83839200     0.42000
Cu130      Cu  0.94982014  0.40579977  0.88760852     0.43900
N131        N  0.97228759  0.45485067  0.91328364    -0.34300
N132        N  0.97224766  0.42893954  0.91306150    -0.28500
C133        C  0.98936685  0.42032682  0.93117174    -0.04600
C134        C  0.00076100  0.44172466  0.94327961     0.07600
C135        C  0.98938946  0.46321366  0.93147626     0.01400
H136        H  0.99348697  0.39995637  0.93499972     0.09000
H137        H  0.99351116  0.48353662  0.93556289     0.08100
N138        N  0.92625836  0.38924005  0.85839144    -0.35700
N139        N  0.91518638  0.40367885  0.84007242    -0.27900
C140        C  0.90136630  0.38828335  0.82393259    -0.03100
C141        C  0.90358687  0.36277207  0.83240014     0.05500
C142        C  0.91949231  0.36404094  0.85438218     0.03600
H143        H  0.89000987  0.39531807  0.80755877     0.08700
H144        H  0.92565632  0.34789640  0.86653623     0.07500
N145        N  0.51830356  0.09663784  0.85987458    -0.26900
N146        N  0.50509145  0.07625999  0.86859717    -0.34700
C147        C  0.47980942  0.07898340  0.86167322     0.01400
C148        C  0.47722951  0.10223717  0.84796740     0.07500
C149        C  0.50202406  0.11283677  0.84728347    -0.05600
H150        H  0.46456667  0.06501242  0.86606804     0.08100
H151        H  0.50806429  0.13070437  0.83776634     0.09300
Cu152      Cu  0.52330844  0.04643968  0.88940880     0.44200
Cu153      Cu  0.55822066  0.10074957  0.86304813     0.42000
Cu154      Cu  0.59602593  0.05065157  0.89252905     0.43900
N155        N  0.54717681  0.02309416  0.91269637    -0.34300
N156        N  0.57299460  0.02472888  0.91405135    -0.28500
C157        C  0.58162011  0.00784307  0.93229027    -0.04600
C158        C  0.56029743  0.99509649  0.94294429     0.07600
C159        C  0.53883228  0.00516901  0.93002546     0.01400
H160        H  0.60189507  0.00543473  0.93776252     0.09000
H161        H  0.51854077  0.00023264  0.93334502     0.08100
N162        N  0.61274224  0.08043668  0.87024633    -0.35700
N163        N  0.59836644  0.09938074  0.86026624    -0.27900
C164        C  0.61368979  0.11567481  0.84657486    -0.03100
C165        C  0.63908141  0.10658879  0.84777176     0.05500
C166        C  0.63782095  0.08414544  0.86295668     0.03600
H167        H  0.60664582  0.13245987  0.83585136     0.08700
H168        H  0.65383922  0.07138063  0.86813825     0.07500
N169        N  0.20589425  0.40095589  0.84797595    -0.26900
N170        N  0.19527255  0.38722949  0.86708782    -0.34700
C171        C  0.20196997  0.36190552  0.86393484     0.01400
C172        C  0.21736981  0.35985234  0.84166535     0.07500
C173        C  0.21941150  0.38500429  0.83217626    -0.05600
H174        H  0.19576184  0.34617493  0.87660999     0.08100
H175        H  0.23006921  0.39137759  0.81506564     0.09300
Cu176      Cu  0.17164451  0.40484426  0.89542383     0.44200
Cu177      Cu  0.20239702  0.44083612  0.84407695     0.42000
Cu178      Cu  0.17026868  0.47766972  0.89362225     0.43900
N179        N  0.14780591  0.42842607  0.91886029    -0.34300
N180        N  0.14746329  0.45432228  0.91836523    -0.28500
C181        C  0.12894107  0.46288193  0.93503069    -0.04600
C182        C  0.11694705  0.44147985  0.94643337     0.07600
C183        C  0.12948900  0.41999479  0.93581865     0.01400
H184        H  0.12417236  0.48322690  0.93819339     0.09000
H185        H  0.12529596  0.39966183  0.93977862     0.08100
N186        N  0.19124254  0.49514642  0.86312884    -0.35700
N187        N  0.20195761  0.48105144  0.84434188    -0.27900
C188        C  0.21370497  0.49690282  0.82706171    -0.03100
C189        C  0.21053841  0.52237554  0.83534376     0.05500
C190        C  0.19621180  0.52060509  0.85835213     0.03600
H191        H  0.22454008  0.49022741  0.81017659     0.08700
H192        H  0.18999278  0.53656893  0.87073122     0.07500
N193        N  0.59762485  0.77694351  0.86250343    -0.26900
N194        N  0.61143645  0.79643675  0.87230224    -0.34700
C195        C  0.63667885  0.79318872  0.86554988     0.01400
C196        C  0.63871410  0.77049286  0.85093550     0.07500
C197        C  0.61359577  0.76068917  0.84950811    -0.05600
H198        H  0.65224201  0.80660381  0.87050231     0.08100
H199        H  0.60713919  0.74363371  0.83882130     0.09300
Cu200      Cu  0.59458336  0.82661126  0.89375476     0.44200
Cu201      Cu  0.55737528  0.77490180  0.86409077     0.42000
Cu202      Cu  0.52267988  0.82810032  0.89380779     0.43900
N203        N  0.57232239  0.85230184  0.91616982    -0.34300
N204        N  0.54644318  0.85279157  0.91620748    -0.28500
C205        C  0.53834850  0.87087435  0.93353234    -0.04600
C206        C  0.56005582  0.88228431  0.94498319     0.07600
C207        C  0.58127133  0.87005311  0.93346766     0.01400
H208        H  0.51808242  0.87518234  0.93773479     0.09000
H209        H  0.60171274  0.87353465  0.93759323     0.08100
N210        N  0.50423684  0.79903857  0.87167147    -0.35700
N211        N  0.51734102  0.77917116  0.86165338    -0.27900
C212        C  0.50088094  0.76366410  0.84837229    -0.03100
C213        C  0.47607711  0.77418375  0.84985665     0.05500
C214        C  0.47886537  0.79668497  0.86479286     0.03600
H215        H  0.50680236  0.74640183  0.83771661     0.08700
H216        H  0.46367338  0.81039450  0.87007643     0.07500
N217        N  0.09689797  0.29664717  0.34447112    -0.26900
N218        N  0.11030702  0.30769621  0.36355475    -0.34700
C219        C  0.13559847  0.30058203  0.36128320     0.01400
C220        C  0.13801004  0.28434590  0.33966574     0.07500
C221        C  0.11305782  0.28234686  0.32956931    -0.05600
H222        H  0.15103194  0.30681458  0.37430870     0.08100
H223        H  0.10690861  0.27109726  0.31276788     0.09300
Cu224      Cu  0.09240267  0.33192946  0.39112168     0.44200
Cu225      Cu  0.05703600  0.30020797  0.34020005     0.42000
Cu226      Cu  0.02020150  0.33461873  0.38927735     0.43900
N227        N  0.06947150  0.35617033  0.41470528    -0.34300
N228        N  0.04360061  0.35707425  0.41411967    -0.28500
C229        C  0.03532506  0.37510884  0.43143086    -0.04600
C230        C  0.05692754  0.38613524  0.44343849     0.07600
C231        C  0.07821534  0.37363696  0.43237328     0.01400
H232        H  0.01504137  0.37996597  0.43489341     0.09000
H233        H  0.09861047  0.37703719  0.43677480     0.08100
N234        N  0.00288672  0.31203441  0.36001369    -0.35700
N235        N  0.01681763  0.30053571  0.34154817    -0.27900
C236        C  0.00080390  0.28781049  0.32517618    -0.03100
C237        C  0.97545429  0.29117336  0.33372487     0.05500
C238        C  0.97740380  0.30658450  0.35595056     0.03600
H239        H  0.00730102  0.27627876  0.30868945     0.08700
H240        H  0.96155391  0.31333015  0.36820835     0.07500
C241        C  0.29868533  0.18274005  0.27511883     0.02700
C242        C  0.28723810  0.20532533  0.26426639     0.02700
C243        C  0.29832040  0.21712463  0.24181907     0.02700
C244        C  0.32138142  0.20656693  0.23067168     0.02700
C245        C  0.33285999  0.18377844  0.24159375     0.02700
C246        C  0.32141621  0.17188146  0.26378100     0.02700
N247        N  0.39632083  0.98126925  0.35994555    -0.26900
N248        N  0.41560362  0.99525127  0.36986734    -0.34700
C249        C  0.41235404  0.02038562  0.36269433     0.01400
C250        C  0.38988187  0.02210990  0.34761730     0.07500
C251        C  0.38024824  0.99693132  0.34637415    -0.05600
H252        H  0.42549213  0.03612221  0.36783607     0.08100
H253        H  0.36327945  0.99026340  0.33567819     0.09300
Cu254      Cu  0.44527864  0.97808692  0.39191236     0.44200
Cu255      Cu  0.39421614  0.94120644  0.36299138     0.42000
Cu256      Cu  0.44666109  0.90520631  0.39194825     0.43900
N257        N  0.47096778  0.95511877  0.41373422    -0.34300
N258        N  0.47151303  0.92922748  0.41360429    -0.28500
C259        C  0.48965508  0.92102060  0.43077024    -0.04600
C260        C  0.50096837  0.94264443  0.44234389     0.07600
C261        C  0.48875257  0.96392395  0.43102904     0.01400
H262        H  0.49386793  0.90073953  0.43495137     0.09000
H263        H  0.49213195  0.98431988  0.43543215     0.08100
N264        N  0.41678652  0.88739545  0.37067382    -0.35700
N265        N  0.39712895  0.90112235  0.36113971    -0.27900
C266        C  0.38069774  0.88518674  0.34843305    -0.03100
C267        C  0.39038201  0.86006626  0.34973636     0.05500
C268        C  0.41339578  0.86209016  0.36398470     0.03600
H269        H  0.36337331  0.89166912  0.33822228     0.08700
H270        H  0.42670508  0.84645340  0.36896111     0.07500
C271        C  0.31706441  0.71560830  0.26050257     0.02700
C272        C  0.29417016  0.70503559  0.27186842     0.02700
C273        C  0.28251429  0.68249970  0.26109654     0.02700
C274        C  0.29329224  0.67061134  0.23869411     0.02700
C275        C  0.31574875  0.68141697  0.22689633     0.02700
C276        C  0.32767412  0.70396593  0.23775043     0.02700
C277        C  0.81738411  0.18232489  0.27290764     0.02700
C278        C  0.82903115  0.20477430  0.26190249     0.02700
C279        C  0.81816103  0.21627221  0.23922737     0.02700
C280        C  0.79551639  0.20557012  0.22763148     0.02700
C281        C  0.78401383  0.18295283  0.23853162     0.02700
C282        C  0.79462317  0.17167264  0.26139608     0.02700
N283        N  0.71051268  0.90206831  0.35146466    -0.26900
N284        N  0.69265612  0.88834761  0.36407011    -0.34700
C285        C  0.69645726  0.86278544  0.35882475     0.01400
C286        C  0.71790178  0.86057990  0.34233074     0.07500
C287        C  0.72625412  0.88587170  0.33816346    -0.05600
H288        H  0.68469706  0.84703528  0.36659706     0.08100
H289        H  0.74231997  0.89218438  0.32595571     0.09300
Cu290      Cu  0.66499526  0.90646305  0.38801115     0.44200
Cu291      Cu  0.71213645  0.94222600  0.35174082     0.42000
Cu292      Cu  0.66666434  0.97947472  0.38921416     0.43900
N293        N  0.64177481  0.93024973  0.41178160    -0.34300
N294        N  0.64245849  0.95613594  0.41231990    -0.28500
C295        C  0.62536518  0.96474508  0.43040846    -0.04600
C296        C  0.61342678  0.94336572  0.44184916     0.07600
C297        C  0.62424518  0.92186336  0.42953093     0.01400
H298        H  0.62204510  0.98509972  0.43502921     0.09000
H299        H  0.61985247  0.90154224  0.43333424     0.08100
N300        N  0.69357227  0.99663702  0.36386297    -0.35700
N301        N  0.71052297  0.98236010  0.35063483    -0.27900
C302        C  0.72554303  0.99797664  0.33593988    -0.03100
C303        C  0.71770223  0.02345684  0.33985000     0.05500
C304        C  0.69730969  0.02200563  0.35768602     0.03600
H305        H  0.74081385  0.99113658  0.32301670     0.08700
H306        H  0.68618258  0.03810259  0.36567273     0.07500
C307        C  0.81918488  0.70238979  0.27293664     0.02700
C308        C  0.79607775  0.71334485  0.26233239     0.02700
C309        C  0.78462232  0.70216582  0.23988636     0.02700
C310        C  0.79627689  0.68025036  0.22776994     0.02700
C311        C  0.81932748  0.66930431  0.23831698     0.02700
C312        C  0.83061004  0.68013529  0.26113659     0.02700
N313        N  0.01765331  0.58011206  0.33875624    -0.26900
N314        N  0.00372409  0.57118071  0.35855700    -0.34700
C315        C  0.97847518  0.57765033  0.35467867     0.01400
C316        C  0.97665885  0.59120471  0.33125529     0.07500
C317        C  0.00187537  0.59224471  0.32170153    -0.05600
H318        H  0.96278127  0.57338652  0.36818623     0.08100
H319        H  0.00855003  0.60231225  0.30435176     0.09300
Cu320      Cu  0.02120276  0.55181265  0.38994465     0.44200
Cu321      Cu  0.05777035  0.57920555  0.33791078     0.42000
Cu322      Cu  0.09331851  0.55492811  0.39372166     0.43900
N323        N  0.04399284  0.53099853  0.41669652    -0.34300
N324        N  0.06982972  0.53206793  0.41801207    -0.28500
C325        C  0.07815587  0.51470261  0.43594440    -0.04600
C326        C  0.05663245  0.50201391  0.44635345     0.07600
C327        C  0.03532065  0.51296432  0.43381494     0.01400
H328        H  0.09846778  0.51103575  0.44051082     0.09000
H329        H  0.01502308  0.50759874  0.43630378     0.08100
N330        N  0.11066434  0.57610523  0.36353189    -0.35700
N331        N  0.09727827  0.58414847  0.34297654    -0.27900
C332        C  0.11307258  0.59747174  0.32690584    -0.03100
C333        C  0.13773521  0.59795651  0.33770892     0.05500
C334        C  0.13562526  0.58417427  0.36096499     0.03600
H335        H  0.10675454  0.60660088  0.30893365     0.08700
H336        H  0.15092894  0.58057837  0.37508753     0.07500
N337        N  0.42018326  0.28213769  0.04231761    -0.26900
N338        N  0.43124004  0.30107762  0.05590360    -0.34700
C339        C  0.42478932  0.29810126  0.08131866     0.01400
C340        C  0.40911565  0.27607531  0.08356383     0.07500
C341        C  0.40674350  0.26649201  0.05846164    -0.05600
H342        H  0.43084907  0.31106083  0.09688037     0.08100
H343        H  0.39522959  0.24992323  0.05215982     0.09300
Cu344      Cu  0.45367174  0.32975386  0.03758415     0.44200
Cu345      Cu  0.42095519  0.27994273  0.00220157     0.42000
Cu346      Cu  0.45034553  0.33097373  0.96472034     0.43900
N347        N  0.47475413  0.35507722  0.01353557    -0.34300
N348        N  0.47349677  0.35576947  0.98766210    -0.28500
C349        C  0.49002845  0.37431595  0.97888209    -0.04600
C350        C  0.50226064  0.38574831  0.00014996     0.07600
C351        C  0.49208773  0.37308137  0.02173958     0.01400
H352        H  0.49309391  0.37896181  0.95848414     0.09000
H353        H  0.49707441  0.37654086  0.04199351     0.08100
N354        N  0.42752215  0.30141635  0.94799080    -0.35700
N355        N  0.41752011  0.28236028  0.96223999    -0.27900
C356        C  0.40411383  0.26593794  0.94681273    -0.03100
C357        C  0.40557161  0.27496662  0.92145728     0.05500
C358        C  0.42052846  0.29759293  0.92284588     0.03600
H359        H  0.39368545  0.24891576  0.95374644     0.08700
H360        H  0.42596068  0.31025274  0.90681592     0.07500
C361        C  0.29576935  0.21022007  0.76642789     0.02700
C362        C  0.31834780  0.19860510  0.77741723     0.02700
C363        C  0.32979928  0.17654312  0.76538908     0.02700
C364        C  0.31872447  0.16596056  0.74248949     0.02700
C365        C  0.29604288  0.17741354  0.73156271     0.02700
C366        C  0.28461469  0.19969211  0.74333075     0.02700
N367        N  0.39273528  0.90131108  0.63660085    -0.26900
N368        N  0.41236352  0.88751197  0.62704936    -0.34700
C369        C  0.40955815  0.86247891  0.63487378     0.01400
C370        C  0.38700903  0.86066749  0.64987522     0.07500
C371        C  0.37691591  0.88565735  0.65046188    -0.05600
H372        H  0.42299495  0.84686266  0.63017044     0.08100
H373        H  0.35978869  0.89225626  0.66095684     0.09300
Cu374      Cu  0.44196040  0.90466964  0.60450141     0.44200
Cu375      Cu  0.38957711  0.94126138  0.63337235     0.42000
Cu376      Cu  0.44317379  0.97689892  0.60628091     0.43900
N377        N  0.46817456  0.92800809  0.58328262    -0.34300
N378        N  0.46858538  0.95388062  0.58410049    -0.28500
C379        C  0.48734601  0.96267023  0.56784047    -0.04600
C380        C  0.49939929  0.94145024  0.55619589     0.07600
C381        C  0.48673395  0.91979393  0.56644603     0.01400
H382        H  0.49165580  0.98308516  0.56447779     0.09000
H383        H  0.49049894  0.89953630  0.56173775     0.08100
N384        N  0.41336421  0.99464765  0.62776559    -0.35700
N385        N  0.39312897  0.98118786  0.63646831    -0.27900
C386        C  0.37708635  0.99709964  0.64971483    -0.03100
C387        C  0.38768640  0.02189912  0.64964694     0.05500
C388        C  0.41076564  0.01971859  0.63554091     0.03600
H389        H  0.35949537  0.99075012  0.65957217     0.08700
H390        H  0.42474210  0.03505487  0.63151546     0.07500
C391        C  0.31793076  0.71454917  0.73942910     0.02700
C392        C  0.29502567  0.70338309  0.72854836     0.02700
C393        C  0.28381200  0.68094326  0.74006652     0.02700
C394        C  0.29531167  0.66961494  0.76245399     0.02700
C395        C  0.31812099  0.68074304  0.77328702     0.02700
C396        C  0.32948324  0.70324898  0.76185169     0.02700
N397        N  0.01753354  0.58117384  0.66325460    -0.26900
N398        N  0.00353669  0.57141170  0.64389647    -0.34700
C399        C  0.97835392  0.57829851  0.64743263     0.01400
C400        C  0.97665604  0.59291731  0.67020553     0.07500
C401        C  0.00186437  0.59428115  0.67967154    -0.05600
H402        H  0.96256312  0.57318991  0.63434839     0.08100
H403        H  0.00855830  0.60473711  0.69678170     0.09300
Cu404      Cu  0.02053773  0.54956088  0.61396767     0.44200
Cu405      Cu  0.05754784  0.57910614  0.66508512     0.42000
Cu406      Cu  0.09281007  0.55161786  0.61137519     0.43900
N407        N  0.04354552  0.52774314  0.58827751    -0.34300
N408        N  0.06940316  0.52864110  0.58733683    -0.28500
C409        C  0.07792207  0.51153080  0.56927695    -0.04600
C410        C  0.05651262  0.49919572  0.55837721     0.07600
C411        C  0.03503743  0.50998713  0.57080442     0.01400
H412        H  0.09827015  0.50807216  0.56469359     0.09000
H413        H  0.01472447  0.50504042  0.56765633     0.08100
N414        N  0.11055094  0.57382250  0.64042498    -0.35700
N415        N  0.09720788  0.58302770  0.66051048    -0.27900
C416        C  0.11322065  0.59654510  0.67619137    -0.03100
C417        C  0.13798119  0.59593628  0.66557280     0.05500
C418        C  0.13568128  0.58137508  0.64281595     0.03600
H419        H  0.10702471  0.60652611  0.69376187     0.08700
H420        H  0.15102656  0.57666751  0.62905351     0.07500
N421        N  0.01888396  0.29722131  0.65776479    -0.26900
N422        N  0.00550619  0.30730829  0.63813489    -0.34700
C423        C  0.98008510  0.30105647  0.64113458     0.01400
C424        C  0.97749809  0.28655917  0.66388161     0.07500
C425        C  0.00248245  0.28456514  0.67388086    -0.05600
H426        H  0.96465824  0.30678218  0.62787655     0.08100
H427        H  0.00847452  0.27415317  0.69126648     0.09300
Cu428      Cu  0.02332058  0.32964223  0.60906806     0.44200
Cu429      Cu  0.05903139  0.29939799  0.66082058     0.42000
Cu430      Cu  0.09567257  0.33090104  0.60984877     0.43900
N431        N  0.04619367  0.35349625  0.58515342    -0.34300
N432        N  0.07208869  0.35412056  0.58535918    -0.28500
C433        C  0.08018656  0.37242085  0.56817806    -0.04600
C434        C  0.05845080  0.38384909  0.55667782     0.07600
C435        C  0.03729038  0.37131451  0.56793153     0.01400
H436        H  0.10043842  0.37726800  0.56451889     0.09000
H437        H  0.01684299  0.37506402  0.56409718     0.08100
N438        N  0.11314164  0.30782422  0.63909337    -0.35700
N439        N  0.09922652  0.29753936  0.65828257    -0.27900
C440        C  0.11498675  0.28406307  0.67432349    -0.03100
C441        C  0.14019875  0.28550449  0.66485299     0.05500
C442        C  0.13838820  0.30073363  0.64239634     0.03600
H443        H  0.10831474  0.27321235  0.69119106     0.08700
H444        H  0.15418779  0.30615640  0.62943473     0.07500
C445        C  0.78506342  0.18024647  0.76083751     0.02700
C446        C  0.79658252  0.16941198  0.73817056     0.02700
C447        C  0.81889329  0.18135389  0.72685687     0.02700
C448        C  0.82946437  0.20433012  0.73807130     0.02700
C449        C  0.81766204  0.21541789  0.76050711     0.02700
C450        C  0.79540590  0.20347305  0.77170485     0.02700
N451        N  0.72336524  0.98278028  0.63349514    -0.26900
N452        N  0.70303781  0.99633745  0.62518540    -0.34700
C453        C  0.70578717  0.02135430  0.63306735     0.01400
C454        C  0.72902774  0.02347846  0.64690098     0.07500
C455        C  0.73958842  0.99863042  0.64668305    -0.05600
H456        H  0.69176002  0.03670390  0.62932869     0.08100
H457        H  0.75733377  0.99224509  0.65621138     0.09300
Cu458      Cu  0.67264662  0.97886530  0.60424507     0.44200
Cu459      Cu  0.72668815  0.94273326  0.62964748     0.42000
Cu460      Cu  0.67166747  0.90676279  0.60479686     0.43900
N461        N  0.64628176  0.95585191  0.58315540    -0.34300
N462        N  0.64590461  0.92997744  0.58345536    -0.28500
C463        C  0.62715255  0.92149621  0.56705656    -0.04600
C464        C  0.61513172  0.94296784  0.55589725     0.07600
C465        C  0.62774578  0.96440789  0.56654149     0.01400
H466        H  0.62289552  0.90115333  0.56320491     0.09000
H467        H  0.62403850  0.98475178  0.56219169     0.08100
N468        N  0.70239036  0.88928241  0.62499079    -0.35700
N469        N  0.72303966  0.90264974  0.63285309    -0.27900
C470        C  0.73946906  0.88657918  0.64546485    -0.03100
C471        C  0.72867084  0.86183018  0.64582610     0.05500
C472        C  0.70510875  0.86421160  0.63263848     0.03600
H473        H  0.75748845  0.89277032  0.65461048     0.08700
H474        H  0.69084550  0.84900244  0.62918065     0.07500
C475        C  0.81915963  0.67218435  0.76268358     0.02700
C476        C  0.83061698  0.68205008  0.73946540     0.02700
C477        C  0.81977338  0.70409814  0.72677892     0.02700
C478        C  0.79695247  0.71598007  0.73702326     0.02700
C479        C  0.78531213  0.70585150  0.76002201     0.02700
C480        C  0.79626161  0.68383903  0.77280646     0.02700
N481        N  0.41304253  0.59894919  0.95993894    -0.26900
N482        N  0.42409135  0.57993616  0.94644160    -0.34700
C483        C  0.41818500  0.58310137  0.92095247     0.01400
C484        C  0.40282075  0.60529067  0.91858292     0.07500
C485        C  0.40002040  0.61475693  0.94366294    -0.05600
H486        H  0.42456378  0.57026710  0.90541036     0.08100
H487        H  0.38878612  0.63154658  0.94985480     0.09300
Cu488      Cu  0.44651801  0.55134615  0.96455774     0.44200
Cu489      Cu  0.41408731  0.60187141  0.99997773     0.42000
Cu490      Cu  0.44533321  0.55173689  0.03699852     0.43900
N491        N  0.46936725  0.52760165  0.98833752    -0.34300
N492        N  0.46910547  0.52766879  0.01422919    -0.28500
C493        C  0.48706307  0.51050082  0.02293844    -0.04600
C494        C  0.49914035  0.49916981  0.00153835     0.07600
C495        C  0.48742516  0.51044578  0.97999640     0.01400
H496        H  0.49119583  0.50677014  0.04333292     0.09000
H497        H  0.49190540  0.50668905  0.95967340     0.08100
N498        N  0.42184456  0.58038237  0.05393815    -0.35700
N499        N  0.41134596  0.59935545  0.03996596    -0.27900
C500        C  0.39732886  0.61501118  0.05562174    -0.03100
C501        C  0.39881106  0.60540628  0.08076296     0.05500
C502        C  0.41451742  0.58338533  0.07907657     0.03600
H503        H  0.38619185  0.63167141  0.04893589     0.08700
H504        H  0.42007342  0.57046608  0.09484656     0.07500
N505        N  0.70043604  0.28584595  0.03891733    -0.26900
N506        N  0.68966754  0.30473200  0.05280265    -0.34700
C507        C  0.69675095  0.30169220  0.07804646     0.01400
C508        C  0.71252485  0.27968015  0.07984661     0.07500
C509        C  0.71435495  0.27022548  0.05465583    -0.05600
H510        H  0.69076804  0.31439609  0.09384890     0.08100
H511        H  0.72548512  0.25351406  0.04805719     0.09300
Cu512      Cu  0.66615120  0.33298984  0.03504057     0.44200
Cu513      Cu  0.69781111  0.28319709  0.99896181     0.42000
Cu514      Cu  0.66795048  0.33446244  0.96214056     0.43900
N515        N  0.64402642  0.35792376  0.01140885    -0.34300
N516        N  0.64474861  0.35866132  0.98551562    -0.28500
C517        C  0.62769595  0.37686578  0.97705809    -0.04600
C518        C  0.61572070  0.38810644  0.99857176     0.07600
C519        C  0.62652926  0.37560802  0.01994934     0.01400
H520        H  0.62410488  0.38139112  0.95672138     0.09000
H521        H  0.62183678  0.37894969  0.04029599     0.08100
N522        N  0.69046924  0.30506040  0.94498870    -0.35700
N523        N  0.70034731  0.28578874  0.95900834    -0.27900
C524        C  0.71345876  0.26938993  0.94337207    -0.03100
C525        C  0.71199667  0.27869943  0.91813580     0.05500
C526        C  0.69730709  0.30143957  0.91976481     0.03600
H527        H  0.72377652  0.25222303  0.95009173     0.08700
H528        H  0.69191583  0.31428398  0.90387707     0.07500
N529        N  0.69418109  0.60833084  0.03930095    -0.26900
N530        N  0.68633620  0.58767516  0.05266585    -0.34700
C531        C  0.69512503  0.58976537  0.07741459     0.01400
C532        C  0.70896960  0.61294238  0.07958794     0.07500
C533        C  0.70792245  0.62415595  0.05506886    -0.05600
H534        H  0.69164979  0.57552269  0.09263642     0.08100
H535        H  0.71705344  0.64218340  0.04887950     0.09300
Cu536      Cu  0.66400765  0.55809403  0.03583878     0.44200
Cu537      Cu  0.68861315  0.61314213  0.99961875     0.42000
Cu538      Cu  0.66065306  0.56065789  0.96367931     0.43900
N539        N  0.64104349  0.53343891  0.01293469    -0.34300
N540        N  0.63985637  0.53438314  0.98708469    -0.28500
C541        C  0.62280732  0.51617744  0.97869538    -0.04600
C542        C  0.61279274  0.50316055  0.00018536     0.07600
C543        C  0.62475745  0.51463227  0.02155988     0.01400
H544        H  0.61789892  0.51281611  0.95840759     0.09000
H545        H  0.62173550  0.50978992  0.04191991     0.08100
N546        N  0.68150237  0.59088556  0.94576594    -0.35700
N547        N  0.69055680  0.61087039  0.95935825    -0.27900
C548        C  0.70342379  0.62718357  0.94332687    -0.03100
C549        C  0.70274116  0.61700000  0.91830499     0.05500
C550        C  0.68866735  0.59389092  0.92053909     0.03600
H551        H  0.71353226  0.64461703  0.94969806     0.08700
H552        H  0.68428879  0.58013167  0.90510162     0.07500
N553        N  0.59717356  0.10380421  0.13928245    -0.26900
N554        N  0.61138628  0.08485105  0.12904168    -0.34700
C555        C  0.63654788  0.08848855  0.13605698     0.01400
C556        C  0.63798257  0.11084299  0.15136057     0.07500
C557        C  0.61265218  0.11996774  0.15291501    -0.05600
H558        H  0.65249557  0.07573158  0.13061999     0.08100
H559        H  0.60575600  0.13674890  0.16375779     0.09300
Cu560      Cu  0.59449217  0.05509588  0.10677593     0.44200
Cu561      Cu  0.55712520  0.10600066  0.13649368     0.42000
Cu562      Cu  0.52163010  0.05372686  0.10750524     0.43900
N563        N  0.57139172  0.02894250  0.08550116    -0.34300
N564        N  0.54548583  0.02839579  0.08577362    -0.28500
C565        C  0.53724420  0.00973232  0.06909845    -0.04600
C566        C  0.55886463  0.99801640  0.05775991     0.07600
C567        C  0.58014364  0.01065043  0.06868659     0.01400
H568        H  0.51694520  0.00531607  0.06517837     0.09000
H569        H  0.60054142  0.00713389  0.06437469     0.08100
N570        N  0.50345607  0.08350098  0.12902507    -0.35700
N571        N  0.51707251  0.10323593  0.13857065    -0.27900
C572        C  0.50118632  0.11925472  0.15190176    -0.03100
C573        C  0.47618256  0.10918679  0.15108075     0.05500
C574        C  0.47824530  0.08643458  0.13634665     0.03600
H575        H  0.50771277  0.13637410  0.16243319     0.08700
H576        H  0.46273842  0.07282815  0.13174367     0.07500
N577        N  0.19584446  0.48130132  0.16330096    -0.26900
N578        N  0.18583378  0.49460663  0.14358780    -0.34700
C579        C  0.19278170  0.51989519  0.14598126     0.01400
C580        C  0.20782184  0.52250570  0.16836166     0.07500
C581        C  0.20931021  0.49764466  0.17880042    -0.05600
H582        H  0.18736599  0.53516176  0.13241493     0.08100
H583        H  0.21984608  0.49167178  0.19611268     0.09300
Cu584      Cu  0.16349187  0.47683771  0.11470447     0.44200
Cu585      Cu  0.19220845  0.44125394  0.16744745     0.42000
Cu586      Cu  0.16145642  0.40456939  0.11613157     0.43900
N587        N  0.14135637  0.45389259  0.08951112    -0.34300
N588        N  0.14076124  0.42801949  0.08977471    -0.28500
C589        C  0.12385643  0.41977396  0.07135794    -0.04600
C590        C  0.11327258  0.44141140  0.05904451     0.07600
C591        C  0.12482949  0.46267948  0.07103213     0.01400
H592        H  0.11923781  0.39950329  0.06754809     0.09000
H593        H  0.12122299  0.48308994  0.06691028     0.08100
N594        N  0.18169064  0.38698687  0.14699849    -0.35700
N595        N  0.19179196  0.40085459  0.16630813    -0.27900
C596        C  0.20404051  0.38481506  0.18304504    -0.03100
C597        C  0.20197678  0.35952801  0.17381053     0.05500
C598        C  0.18761766  0.36156866  0.15087542     0.03600
H599        H  0.21491563  0.39133199  0.19995860     0.08700
H600        H  0.18241946  0.34588428  0.13769304     0.07500
N601        N  0.21718279  0.08429949  0.54237754    -0.26900
N602        N  0.19803161  0.07379903  0.55613952    -0.34700
C603        C  0.20209424  0.07898342  0.58164291     0.01400
C604        C  0.22504227  0.09320759  0.58379566     0.07500
C605        C  0.23403464  0.09615950  0.55854775    -0.05600
H606        H  0.18934442  0.07285317  0.59735590     0.08100
H607        H  0.25118160  0.10678840  0.55223004     0.09300
Cu608      Cu  0.16814480  0.05263956  0.53860138     0.44200
Cu609      Cu  0.21894208  0.08404997  0.50220337     0.42000
Cu610      Cu  0.16817493  0.05373385  0.46586320     0.43900
N611        N  0.14368007  0.03037939  0.51497953    -0.34300
N612        N  0.14366554  0.03077049  0.48908175    -0.28500
C613        C  0.12611426  0.01323070  0.48035891    -0.04600
C614        C  0.11460719  0.00123002  0.50167820     0.07600
C615        C  0.12618629  0.01257244  0.52329126     0.01400
H616        H  0.12228747  0.00924749  0.45995006     0.09000
H617        H  0.12246626  0.00797134  0.54359184     0.08100
N618        N  0.19727626  0.07629244  0.44829915    -0.35700
N619        N  0.21632237  0.08680968  0.46216738    -0.27900
C620        C  0.23226360  0.10031352  0.44633011    -0.03100
C621        C  0.22286647  0.09838615  0.42111373     0.05500
C622        C  0.20060206  0.08297768  0.42300826     0.03600
H623        H  0.24912928  0.11121540  0.45290999     0.08700
H624        H  0.18772471  0.07721513  0.40726925     0.07500
O625        O  0.08592933  0.97124379  0.52282321    -0.72500
O626        O  0.03178093  0.91412715  0.52127600    -0.73500
O627        O  0.08705920  0.91554331  0.52213587    -0.62100
O628        O  0.03023012  0.97005112  0.52207814    -0.70600
O629        O  0.03088384  0.97068107  0.47871969    -0.70100
O630        O  0.08758671  0.91607808  0.47875291    -0.61400
O631        O  0.03227795  0.91473507  0.47790064    -0.73900
O632        O  0.08644257  0.97172091  0.47944508    -0.72700
Cu633      Cu  0.05870636  0.94275876  0.52359369     1.04600
Cu634      Cu  0.05930055  0.94336165  0.47720183     1.04300
C635        C  0.09473523  0.98043218  0.50132417     0.93700
C636        C  0.02385984  0.90512593  0.49936185     0.92800
C637        C  0.09603166  0.90703378  0.50044053     0.84900
C638        C  0.02170637  0.97907583  0.50039680     0.91200
O639        O  0.53762258  0.96836798  0.02865447    -0.72500
O640        O  0.53849526  0.91168382  0.97387165    -0.73500
O641        O  0.53762176  0.91283110  0.02944171    -0.62100
O642        O  0.53846183  0.96707072  0.97283459    -0.70600
O643        O  0.58183830  0.96726177  0.97339116    -0.70100
O644        O  0.58100318  0.91267344  0.03004073    -0.61400
O645        O  0.58185606  0.91157176  0.97420588    -0.73900
O646        O  0.58097537  0.96837197  0.02925160    -0.72700
Cu647      Cu  0.53657149  0.93999674  0.00119350     1.04600
Cu648      Cu  0.58295495  0.93997946  0.00176421     1.04300
C649        C  0.55916894  0.97726466  0.03764670     0.93700
C650        C  0.56020680  0.90277950  0.96531641     0.92800
C651        C  0.55913916  0.90418396  0.03863519     0.84900
C652        C  0.56022815  0.97558349  0.96405310     0.91200
O653        O  0.08452337  0.42010466  0.02937627    -0.72500
O654        O  0.02988670  0.42011691  0.97264041    -0.73500
O655        O  0.08595676  0.41994843  0.97387305    -0.62100
O656        O  0.02907921  0.42061344  0.02833974    -0.70600
O657        O  0.02937726  0.46397679  0.02841223    -0.70100
O658        O  0.08601479  0.46329382  0.97364678    -0.61400
O659        O  0.02991286  0.46345278  0.97261883    -0.73900
O660        O  0.08498755  0.46345863  0.02926188    -0.72700
Cu661      Cu  0.05731539  0.41870841  0.00101332     1.04600
Cu662      Cu  0.05755008  0.46506867  0.00091722     1.04300
C663        C  0.09335092  0.44169936  0.03824741     0.93700
C664        C  0.02112292  0.44176214  0.96380875     0.92800
C665        C  0.09524751  0.44156925  0.96548110     0.84900
C666        C  0.02053903  0.44234750  0.03718646     0.91200
O667        O  0.53038351  0.41587295  0.97833492    -0.72500
O668        O  0.58454540  0.47313556  0.97854074    -0.73500
O669        O  0.58613875  0.41733040  0.97744643    -0.62100
O670        O  0.52901681  0.47138821  0.97943598    -0.70600
O671        O  0.52945878  0.47089507  0.02281436    -0.70100
O672        O  0.58663439  0.41679428  0.02081335    -0.61400
O673        O  0.58515611  0.47255301  0.02190617    -0.73900
O674        O  0.53104894  0.41529009  0.02170064    -0.72700
Cu675      Cu  0.55752102  0.44447094  0.97693430     1.04600
Cu676      Cu  0.55812859  0.44385764  0.02331851     1.04300
C677        C  0.52214785  0.40661423  0.00002742     0.93700
C678        C  0.59327742  0.48194666  0.00022655     0.92800
C679        C  0.59526631  0.40840860  0.99891296     0.84900
C680        C  0.52019271  0.47958305  0.00131930     0.91200
O681        O  0.07880653  0.41541582  0.47251557    -0.72500
O682        O  0.07844659  0.47026276  0.52925145    -0.73500
O683        O  0.07936719  0.41438882  0.52825885    -0.62100
O684        O  0.07837158  0.47143213  0.47386937    -0.70600
O685        O  0.03501358  0.47119091  0.47404099    -0.70100
O686        O  0.03602590  0.41370307  0.52849311    -0.61400
O687        O  0.03507779  0.46963029  0.52957480    -0.73900
O688        O  0.03544707  0.41524624  0.47272849    -0.72700
Cu689      Cu  0.08024335  0.44287708  0.50095073     1.04600
Cu690      Cu  0.03388062  0.44240525  0.50120862     1.04300
C691        C  0.05710081  0.40659697  0.46379207     0.93700
C692        C  0.05668199  0.47871705  0.53815678     0.92800
C693        C  0.05790657  0.40497809  0.53691102     0.84900
C694        C  0.05663428  0.48054126  0.46563915     0.91200
O695        O  0.58516387  0.96457652  0.52756742    -0.72500
O696        O  0.52930032  0.96449102  0.47211787    -0.73500
O697        O  0.52919089  0.96379744  0.52795764    -0.62100
O698        O  0.58485707  0.96492883  0.47179699    -0.70600
O699        O  0.58519324  0.92157591  0.47167208    -0.70100
O700        O  0.52951535  0.92046411  0.52739718    -0.61400
O701        O  0.52982596  0.92113308  0.47170745    -0.73900
O702        O  0.58541014  0.92122521  0.52738224    -0.72700
Cu703      Cu  0.55711253  0.96597411  0.49993019     1.04600
Cu704      Cu  0.55751017  0.91961364  0.49957808     1.04300
C705        C  0.59421394  0.94292667  0.53607931     0.93700
C706        C  0.52096517  0.94278792  0.46301427     0.92800
C707        C  0.52040583  0.94193071  0.53632596     0.84900
C708        C  0.59359753  0.94332846  0.46276891     0.91200
C709        C  0.73426413  0.63098338  0.85714233     0.20700
C710        C  0.74466695  0.62573853  0.83223381    -0.39100
C711        C  0.75934618  0.64599527  0.82084736     0.19700
C712        C  0.76311473  0.66974700  0.83320964     0.22400
C713        C  0.75266160  0.67502153  0.85802974    -0.39600
C714        C  0.73828018  0.65468150  0.86952533     0.21200
N715        N  0.72042323  0.61469745  0.87253698    -0.32900
C716        C  0.71586614  0.62804616  0.89500557    -0.10500
C717        C  0.72663189  0.65308691  0.89375132    -0.29300
N718        N  0.77747149  0.68586554  0.81821314    -0.45900
C719        C  0.78295301  0.67233652  0.79608097    -0.05200
C720        C  0.77202551  0.64734138  0.79704969    -0.22500
H721        H  0.74176471  0.60717195  0.82253944     0.19300
H722        H  0.75573879  0.69352012  0.86780472     0.18100
H723        H  0.72643319  0.66798223  0.90875945     0.14300
H724        H  0.77261972  0.63250101  0.78199674     0.14200
H725        H  0.71510464  0.59545526  0.86832257     0.32400
H726        H  0.78289518  0.70504586  0.82257761     0.35100
C727        C  0.78193148  0.77645163  0.70483279     0.20700
C728        C  0.78679813  0.80164410  0.69525192    -0.39100
C729        C  0.76632824  0.81318287  0.68119436     0.19700
C730        C  0.74282150  0.80056882  0.67676838     0.22400
C731        C  0.73792299  0.77530579  0.68640369    -0.39600
C732        C  0.75838123  0.76380184  0.70068448     0.21200
N733        N  0.79833096  0.76134561  0.71865916    -0.32900
C734        C  0.78519439  0.73887162  0.72347691    -0.10500
C735        C  0.76015539  0.73966927  0.71261628    -0.29300
N736        N  0.72647142  0.81598852  0.66308688    -0.45900
C737        C  0.73965209  0.83863535  0.65900715    -0.05200
C738        C  0.76458394  0.83753439  0.66997641    -0.22500
H739        H  0.80515333  0.81159883  0.69861812     0.19300
H740        H  0.71952626  0.76539879  0.68313674     0.18100
H741        H  0.74550470  0.72442552  0.71295961     0.14300
H742        H  0.77937495  0.85264311  0.67005296     0.14200
H743        H  0.81739596  0.76593160  0.72432390     0.32400
H744        H  0.70738361  0.81157656  0.65737589     0.35100
C745        C  0.76625356  0.22087200  0.83283950     0.20700
C746        C  0.75833418  0.21745053  0.85881175    -0.39100
C747        C  0.74498687  0.23857609  0.86998120     0.19700
C748        C  0.73973640  0.26132846  0.85633876     0.22400
C749        C  0.74775952  0.26478401  0.83034739    -0.39600
C750        C  0.76124447  0.24369154  0.81919936     0.21200
N751        N  0.77921418  0.20370851  0.81783521    -0.32900
C752        C  0.78251691  0.21574548  0.79451125    -0.10500
C753        C  0.77162189  0.24069694  0.79458092    -0.29300
N754        N  0.72687170  0.27850882  0.87151428    -0.45900
C755        C  0.72415039  0.26661315  0.89501977    -0.05200
C756        C  0.73517773  0.24169592  0.89476481    -0.22500
H757        H  0.76235161  0.19969545  0.86956239     0.19300
H758        H  0.74386859  0.28258328  0.81962834     0.18100
H759        H  0.77116503  0.25458572  0.77864786     0.14300
H760        H  0.73607153  0.22775488  0.91062934     0.14200
H761        H  0.78545515  0.18500866  0.82308671     0.32400
H762        H  0.72076597  0.29727373  0.86635038     0.35100
C763        C  0.74323646  0.08471153  0.67794534     0.20700
C764        C  0.73844982  0.11013035  0.68715075    -0.39100
C765        C  0.75844217  0.12129844  0.70228740     0.19700
C766        C  0.78154094  0.10825854  0.70758201     0.22400
C767        C  0.78634191  0.08291778  0.69835745    -0.39600
C768        C  0.76625972  0.07166698  0.68348783     0.21200
N769        N  0.72714318  0.06951429  0.66371524    -0.32900
C770        C  0.73996854  0.04655549  0.66038922    -0.10500
C771        C  0.76445244  0.04725391  0.67238753    -0.29300
N772        N  0.79768563  0.12329525  0.72180488    -0.45900
C773        C  0.78476633  0.14607075  0.72565101    -0.05200
C774        C  0.76018524  0.14555170  0.71388039    -0.22500
H775        H  0.72045931  0.12040648  0.68294347     0.19300
H776        H  0.80434781  0.07265999  0.70255322     0.18100
H777        H  0.77889005  0.03184152  0.67322527     0.14300
H778        H  0.74596985  0.16117890  0.71315033     0.14200
H779        H  0.70841874  0.07428281  0.65716451     0.32400
H780        H  0.81653551  0.11860983  0.72806328     0.35100
C781        C  0.87803420  0.23644890  0.69895153     0.20700
C782        C  0.88862950  0.24852178  0.67668284    -0.39100
C783        C  0.91412761  0.25830258  0.67944027     0.19700
C784        C  0.92795595  0.25608923  0.70258088     0.22400
C785        C  0.91730904  0.24421058  0.72485535    -0.39600
C786        C  0.89188715  0.23446844  0.72209333     0.21200
N787        N  0.85423255  0.22560912  0.70147276    -0.32900
C788        C  0.85295748  0.21680424  0.72643509    -0.10500
C789        C  0.87613819  0.22184928  0.73982941    -0.29300
N790        N  0.95203408  0.26615924  0.70001145    -0.45900
C791        C  0.95361483  0.27498220  0.67508799    -0.05200
C792        C  0.93028543  0.27058394  0.66165666    -0.22500
H793        H  0.87788701  0.25005098  0.65853377     0.19300
H794        H  0.92810468  0.24250824  0.74296016     0.18100
H795        H  0.88071617  0.21710569  0.75991948     0.14300
H796        H  0.92598970  0.27510917  0.64145435     0.14200
H797        H  0.83959980  0.22462139  0.68728169     0.32400
H798        H  0.96655631  0.26681310  0.71433249     0.35100
C799        C  0.89123066  0.65048536  0.72455025     0.20700
C800        C  0.91682683  0.64186778  0.72899047    -0.39100
C801        C  0.92813761  0.62741259  0.70866930     0.19700
C802        C  0.91488626  0.62166414  0.68579522     0.22400
C803        C  0.88921355  0.63023353  0.68138640    -0.39600
C804        C  0.87798930  0.64496848  0.70160597     0.21200
N805        N  0.87634045  0.66482071  0.74068919    -0.32900
C806        C  0.85347787  0.66852921  0.72790785    -0.10500
C807        C  0.85372917  0.65645713  0.70346756    -0.29300
N808        N  0.93023109  0.60812022  0.66931342    -0.45900
C809        C  0.95347141  0.60547505  0.68173107    -0.05200
C810        C  0.95286620  0.61719498  0.70634405    -0.22500
H811        H  0.92728572  0.64638175  0.74681098     0.19300
H812        H  0.87887024  0.62602316  0.66342696     0.18100
H813        H  0.83809546  0.65584074  0.68924528     0.14300
H814        H  0.96852565  0.61844582  0.72049395     0.14200
H815        H  0.88134585  0.67160547  0.75927838     0.32400
H816        H  0.92539584  0.60166759  0.65056418     0.35100
C817        C  0.35158590  0.64138232  0.82031160     0.20700
C818        C  0.36565655  0.61976782  0.82967161    -0.39100
C819        C  0.37464470  0.62177399  0.85550731     0.19700
C820        C  0.36983659  0.64362155  0.87071515     0.22400
C821        C  0.35599848  0.66525759  0.86131376    -0.39600
C822        C  0.34709051  0.66327437  0.83556501     0.21200
N823        N  0.34119644  0.64450296  0.79642277    -0.32900
C824        C  0.33029032  0.66861826  0.79651906    -0.10500
C825        C  0.33343941  0.68089049  0.82059854    -0.29300
N826        N  0.37968211  0.64055484  0.89475633    -0.45900
C827        C  0.39092342  0.61660551  0.89500592    -0.05200
C828        C  0.38837050  0.60428886  0.87079759    -0.22500
H829        H  0.36925712  0.60266519  0.81776589     0.19300
H830        H  0.35236111  0.68235228  0.87322491     0.18100
H831        H  0.32705540  0.70026966  0.82613951     0.14300
H832        H  0.39499178  0.58496049  0.86536816     0.14200
H833        H  0.34200090  0.63138790  0.78080187     0.32400
H834        H  0.37855735  0.65393793  0.91012263     0.35100
C835        C  0.18556960  0.63013392  0.70334039     0.20700
C836        C  0.19514165  0.64392631  0.72497896    -0.39100
C837        C  0.22102825  0.65251574  0.72298738     0.19700
C838        C  0.23620274  0.64775940  0.70108462     0.22400
C839        C  0.22666305  0.63378397  0.67949012    -0.39600
C840        C  0.20073177  0.62513493  0.68149711     0.21200
N841        N  0.16152388  0.62022080  0.70038256    -0.32900
C842        C  0.16127716  0.60873484  0.67651651    -0.10500
C843        C  0.18543424  0.61129165  0.66412251    -0.29300
N844        N  0.26023625  0.65780615  0.70414484    -0.45900
C845        C  0.26036099  0.66882219  0.72821500    -0.05200
C846        C  0.23624686  0.66601702  0.74056342    -0.22500
H847        H  0.18329457  0.64768172  0.74210163     0.19300
H848        H  0.23854727  0.62993763  0.66241734     0.18100
H849        H  0.19093980  0.60430161  0.64493450     0.14300
H850        H  0.23080578  0.67260523  0.75991407     0.14200
H851        H  0.14623261  0.62129131  0.71385915     0.32400
H852        H  0.27580013  0.65676242  0.69097331     0.35100
C853        C  0.33356004  0.77569614  0.70920525     0.20700
C854        C  0.32869777  0.80080697  0.69947834    -0.39100
C855        C  0.34936518  0.81242097  0.68576518     0.19700
C856        C  0.37304317  0.79995592  0.68183300     0.22400
C857        C  0.37794852  0.77481494  0.69167956    -0.39600
C858        C  0.35728139  0.76322014  0.70553302     0.21200
N859        N  0.31685350  0.76032025  0.72233243    -0.32900
C860        C  0.32997188  0.73783561  0.72703854    -0.10500
C861        C  0.35530335  0.73892374  0.71696693    -0.29300
N862        N  0.38943435  0.81525982  0.66807581    -0.45900
C863        C  0.37611714  0.83769399  0.66346931    -0.05200
C864        C  0.35106663  0.83659412  0.67419356    -0.22500
H865        H  0.31014585  0.81055675  0.70230803     0.19300
H866        H  0.39642032  0.76496952  0.68867975     0.18100
H867        H  0.36994352  0.72367793  0.71728436     0.14300
H868        H  0.33611370  0.85152744  0.67371061     0.14200
H869        H  0.29756675  0.76465937  0.72742204     0.32400
H870        H  0.40860622  0.81090643  0.66259703     0.35100
C871        C  0.28042850  0.14788854  0.67015295     0.20700
C872        C  0.28511049  0.13871427  0.64478611    -0.39100
C873        C  0.26449150  0.12490438  0.63324062     0.19700
C874        C  0.24111007  0.12028478  0.64606472     0.22400
C875        C  0.23646755  0.12941158  0.67149902    -0.39600
C876        C  0.25700453  0.14346014  0.68296679     0.21200
N877        N  0.29693162  0.16140732  0.68537950    -0.32900
C878        C  0.28395878  0.16551640  0.70809387    -0.10500
C879        C  0.25894810  0.15474581  0.70730787    -0.29300
N880        N  0.22433025  0.10745994  0.63045554    -0.45900
C881        C  0.23704168  0.10426163  0.60744169    -0.05200
C882        C  0.26218835  0.11471499  0.60850399    -0.22500
H883        H  0.30333846  0.14233009  0.63467422     0.19300
H884        H  0.21813958  0.12605334  0.68151270     0.18100
H885        H  0.24453196  0.15449959  0.72278540     0.14300
H886        H  0.27658341  0.11545466  0.59302242     0.14200
H887        H  0.31600751  0.16707294  0.68082411     0.32400
H888        H  0.20511237  0.10216143  0.63484108     0.35100
C889        C  0.18712607  0.25144094  0.70413340     0.20700
C890        C  0.19668320  0.23902982  0.72666949    -0.39100
C891        C  0.22221376  0.22921119  0.72496166     0.19700
C892        C  0.23701075  0.23137293  0.70242713     0.22400
C893        C  0.22743768  0.24380523  0.67985680    -0.39600
C894        C  0.20195916  0.25391585  0.68165606     0.21200
N895        N  0.16356221  0.26252524  0.70093916    -0.32900
C896        C  0.16327940  0.27236938  0.67631743    -0.10500
C897        C  0.18697233  0.26744321  0.66365663    -0.29300
N898        N  0.26083871  0.22089082  0.70599512    -0.45900
C899        C  0.26133170  0.21219472  0.73104542    -0.05200
C900        C  0.23748626  0.21690678  0.74344866    -0.22500
H901        H  0.18516718  0.23738731  0.74434039     0.19300
H902        H  0.23908164  0.24572221  0.66230080     0.18100
H903        H  0.19235367  0.27269721  0.64389146     0.14300
H904        H  0.23219062  0.21222240  0.76338154     0.14200
H905        H  0.14860097  0.26341286  0.71479852     0.32400
H906        H  0.27606505  0.22017195  0.69241327     0.35100
C907        C  0.37373589  0.08235733  0.68213054     0.20700
C908        C  0.37855618  0.10740999  0.69230261    -0.39100
C909        C  0.35811786  0.11842693  0.70698411     0.19700
C910        C  0.33471385  0.10548507  0.71111431     0.22400
C911        C  0.32991499  0.08053643  0.70098421    -0.39600
C912        C  0.35031837  0.06952709  0.68644926     0.21200
N913        N  0.39001354  0.06739265  0.66784643    -0.32900
C914        C  0.37683079  0.04484188  0.66330075    -0.10500
C915        C  0.35200681  0.04556003  0.67452934    -0.29300
N916        N  0.31815657  0.12029862  0.72503751    -0.45900
C917        C  0.33099379  0.14294519  0.72974612    -0.05200
C918        C  0.35605092  0.14248992  0.71893448    -0.22500
H919        H  0.39680331  0.11758047  0.68899630     0.19300
H920        H  0.31160419  0.07043507  0.70416600     0.18100
H921        H  0.33724329  0.03042606  0.67433789     0.14300
H922        H  0.37038361  0.15803583  0.71902393     0.14200
H923        H  0.40904716  0.07198962  0.66208461     0.32400
H924        H  0.29907496  0.11555033  0.73052380     0.35100
C925        C  0.37179296  0.23545309  0.87460920     0.20700
C926        C  0.35766601  0.21375510  0.86546824    -0.39100
C927        C  0.34858996  0.21549694  0.83964912     0.19700
C928        C  0.35326111  0.23719444  0.82418650     0.22400
C929        C  0.36767102  0.25869758  0.83322030    -0.39600
C930        C  0.37673642  0.25697624  0.85901608     0.21200
N931        N  0.38172243  0.23902213  0.89864219    -0.32900
C932        C  0.39313963  0.26296081  0.89836236    -0.10500
C933        C  0.39056987  0.27469276  0.87390467    -0.29300
N934        N  0.34245143  0.23420327  0.80046978    -0.45900
C935        C  0.33097416  0.21037540  0.80072031    -0.05200
C936        C  0.33436596  0.19805343  0.82481783    -0.22500
H937        H  0.35382622  0.19688868  0.87762999     0.19300
H938        H  0.37134317  0.27563922  0.82111730     0.18100
H939        H  0.39730456  0.29384428  0.86801150     0.14300
H940        H  0.32764511  0.17882948  0.83049891     0.14200
H941        H  0.38055028  0.22602158  0.91432223     0.32400
H942        H  0.34328202  0.24728714  0.78483268     0.35100
C943        C  0.76605741  0.66581499  0.16632851     0.20700
C944        C  0.75613839  0.67119160  0.14138917    -0.39100
C945        C  0.74341094  0.65038033  0.12897180     0.19700
C946        C  0.74055896  0.62611844  0.14057125     0.22400
C947        C  0.75050268  0.62074081  0.16556671    -0.39600
C948        C  0.76337969  0.64154020  0.17794760     0.21200
N949        N  0.77867698  0.68239308  0.18222723    -0.32900
C950        C  0.78398965  0.66864879  0.20420483    -0.10500
C951        C  0.77483487  0.64304456  0.20226288    -0.29300
N952        N  0.72765331  0.60968336  0.12464097    -0.45900
C953        C  0.72245965  0.62357079  0.10269198    -0.05200
C954        C  0.73198804  0.64902539  0.10469078    -0.22500
H955        H  0.75818846  0.69018180  0.13232158     0.19300
H956        H  0.74834849  0.60179724  0.17470186     0.18100
H957        H  0.77589159  0.62784423  0.21691714     0.14300
H958        H  0.73075042  0.66447642  0.09031775     0.14200
H959        H  0.78319725  0.70193193  0.17847234     0.32400
H960        H  0.72299790  0.59016699  0.12833714     0.35100
C961        C  0.91589529  0.62253137  0.31647175     0.20700
C962        C  0.89073600  0.63238733  0.32125407    -0.39100
C963        C  0.87925806  0.64621668  0.30053976     0.19700
C964        C  0.89188158  0.64993799  0.27689549     0.22400
C965        C  0.91707317  0.64024947  0.27217743    -0.39600
C966        C  0.92854396  0.62646163  0.29288016     0.21200
N967        N  0.93107277  0.60882502  0.33297434    -0.32900
C968        C  0.95363045  0.60422322  0.31984728    -0.10500
C969        C  0.95273201  0.61488583  0.29476236    -0.29300
N970        N  0.87653609  0.66302003  0.26011509    -0.45900
C971        C  0.85392200  0.66761327  0.27311759    -0.05200
C972        C  0.85492857  0.65755078  0.29844691    -0.22500
H973        H  0.88077261  0.62937591  0.33967033     0.19300
H974        H  0.92696331  0.64312123  0.25369769     0.18100
H975        H  0.96785836  0.61451020  0.27998171     0.14300
H976        H  0.83961521  0.65785425  0.31303669     0.14200
H977        H  0.92659254  0.60348598  0.35215754     0.32400
H978        H  0.88101573  0.66821455  0.24088984     0.35100
C979        C  0.75732904  0.81214004  0.31107337     0.20700
C980        C  0.77941417  0.80238551  0.29810090    -0.39100
C981        C  0.77786993  0.77629347  0.29002157     0.19700
C982        C  0.75594684  0.76107006  0.29443099     0.22400
C983        C  0.73387227  0.77079422  0.30758865    -0.39600
C984        C  0.73547507  0.79692593  0.31582801     0.21200
N985        N  0.75384830  0.83645997  0.32018817    -0.32900
C986        C  0.72966211  0.83684290  0.33099624    -0.10500
C987        C  0.71759733  0.81247207  0.32880895    -0.29300
N988        N  0.75946195  0.73687778  0.28484049    -0.45900
C989        C  0.78386449  0.73670230  0.27448607    -0.05200
C990        C  0.79590961  0.76096735  0.27723119    -0.22500
H991        H  0.79653820  0.81427363  0.29451901     0.19300
H992        H  0.71673714  0.75891132  0.31112346     0.18100
H993        H  0.69819079  0.80706516  0.33524646     0.14300
H994        H  0.81533211  0.76649067  0.27093729     0.14200
H995        H  0.76715216  0.85189052  0.31901563     0.32400
H996        H  0.74630281  0.72129893  0.28565491     0.35100
C997        C  0.69952918  0.12688549  0.18059968     0.20700
C998        C  0.72547053  0.12305452  0.18869557    -0.39100
C999        C  0.73650179  0.14348185  0.20332686     0.19700
C1000       C  0.72280065  0.16605563  0.20923071     0.22400
C1001       C  0.69688084  0.16980819  0.20128479    -0.39600
C1002       C  0.68581483  0.14933507  0.18686060     0.21200
N1003       N  0.68448563  0.11039017  0.16669779    -0.32900
C1004       C  0.66097876  0.12238512  0.16434128    -0.10500
C1005       C  0.66111452  0.14670883  0.17665320    -0.29300
N1006       N  0.73776240  0.18278028  0.22281434    -0.45900
C1007       C  0.76111632  0.17072881  0.22570057    -0.05200
C1008       C  0.76111359  0.14614774  0.21391602    -0.22500
H1009       H  0.73625465  0.10549438  0.18396570     0.19300
H1010       H  0.68610997  0.18738219  0.20599989     0.18100
H1011       H  0.64522965  0.16057990  0.17810804     0.14300
H1012       H  0.77714942  0.13241618  0.21280275     0.14200
H1013       H  0.68974002  0.09197009  0.15967176     0.32400
H1014       H  0.73254438  0.20132591  0.22954031     0.35100
C1015       C  0.76699845  0.22303269  0.16598150     0.20700
C1016       C  0.75810552  0.21898560  0.14039885    -0.39100
C1017       C  0.74557212  0.24030845  0.12867047     0.19700
C1018       C  0.74191017  0.26385967  0.14145214     0.22400
C1019       C  0.75095576  0.26796181  0.16706934    -0.39600
C1020       C  0.76366906  0.24662691  0.17878521     0.21200
N1021       N  0.77916180  0.20567338  0.18142965    -0.32900
C1022       C  0.78362674  0.21822164  0.20431224    -0.10500
C1023       C  0.77435115  0.24386557  0.20338419    -0.29300
N1024       N  0.72924369  0.28094257  0.12595074    -0.45900
C1025       C  0.72509794  0.26816740  0.10309139    -0.05200
C1026       C  0.73503159  0.24281495  0.10409800    -0.22500
H1027       H  0.76072209  0.20055491  0.13036330     0.19300
H1028       H  0.74824022  0.28634933  0.17715175     0.18100
H1029       H  0.77485404  0.25828325  0.21884755     0.14300
H1030       H  0.73460531  0.22814132  0.08887506     0.14200
H1031       H  0.78399814  0.18640868  0.17676151     0.32400
H1032       H  0.72414536  0.30017469  0.13046612     0.35100
C1033       C  0.73474033  0.08575024  0.31291470     0.20700
C1034       C  0.73193988  0.11231096  0.30660929    -0.39100
C1035       C  0.75303453  0.12359958  0.29313452     0.19700
C1036       C  0.77519455  0.10951405  0.28655060     0.22400
C1037       C  0.77780363  0.08296410  0.29248373    -0.39600
C1038       C  0.75674875  0.07170457  0.30583740     0.21200
N1039       N  0.71789030  0.07052948  0.32621772    -0.32900
C1040       C  0.72928670  0.04663752  0.32733945    -0.10500
C1041       C  0.75345052  0.04664787  0.31475887    -0.29300
N1042       N  0.79280147  0.12478749  0.27454185    -0.45900
C1043       C  0.78171833  0.14872904  0.27330406    -0.05200
C1044       C  0.75688732  0.14882135  0.28456689    -0.22500
H1045       H  0.71478276  0.12341950  0.31203365     0.19300
H1046       H  0.79509743  0.07193581  0.28732928     0.18100
H1047       H  0.76699700  0.03055064  0.31270120     0.14300
H1048       H  0.74367030  0.16521163  0.28645265     0.14200
H1049       H  0.69978095  0.07598749  0.33388890     0.32400
H1050       H  0.81119554  0.11932840  0.26757442     0.35100
C1051       C  0.25917479  0.62217239  0.20123436     0.20700
C1052       C  0.24482036  0.61205657  0.18011509    -0.39100
C1053       C  0.23640866  0.58606963  0.18278925     0.19700
C1054       C  0.24200525  0.57137039  0.20478199     0.22400
C1055       C  0.25616067  0.58152398  0.22593211    -0.39600
C1056       C  0.26447310  0.60745800  0.22330003     0.21200
N1057       N  0.26920969  0.64632649  0.20363064    -0.32900
C1058       C  0.28076803  0.64697555  0.22745407    -0.10500
C1059       C  0.27826923  0.62309420  0.24028853    -0.29300
N1060       N  0.23233652  0.54712171  0.20244544    -0.45900
C1061       C  0.22038904  0.54624707  0.17882618    -0.05200
C1062       C  0.22239575  0.57024580  0.16599135    -0.22500
H1063       H  0.24055452  0.62354695  0.16288805     0.19300
H1064       H  0.26041665  0.57004506  0.24317161     0.18100
H1065       H  0.28534115  0.61803408  0.25956192     0.14300
H1066       H  0.21501829  0.57529139  0.14683146     0.14200
H1067       H  0.26788055  0.66160256  0.19017201     0.32400
H1068       H  0.23390457  0.53206800  0.21612127     0.35100
C1069       C  0.34559377  0.64075675  0.17841758     0.20700
C1070       C  0.35884536  0.61879030  0.16868157    -0.39100
C1071       C  0.36780453  0.62081546  0.14283562     0.19700
C1072       C  0.36352844  0.64290645  0.12784260     0.22400
C1073       C  0.35029708  0.66482021  0.13755481    -0.39600
C1074       C  0.34163100  0.66291528  0.16342442     0.21200
N1075       N  0.33630749  0.64428203  0.20271089    -0.32900
C1076       C  0.32671537  0.66895211  0.20319026    -0.10500
C1077       C  0.32945291  0.68111870  0.17900433    -0.29300
N1078       N  0.37410029  0.64014941  0.10403051    -0.45900
C1079       C  0.38537744  0.61620421  0.10380124    -0.05200
C1080       C  0.38192605  0.60351894  0.12769391    -0.22500
H1081       H  0.36233536  0.60161428  0.18050030     0.19300
H1082       H  0.34738521  0.68225769  0.12596110     0.18100
H1083       H  0.32390130  0.70083973  0.17380501     0.14300
H1084       H  0.38866134  0.58424870  0.13316844     0.14200
H1085       H  0.33716857  0.63109148  0.21825622     0.32400
H1086       H  0.37382485  0.65388441  0.08894699     0.35100
C1087       C  0.18412049  0.63439134  0.30048924     0.20700
C1088       C  0.19308871  0.64928772  0.27933592    -0.39100
C1089       C  0.21939974  0.65664089  0.28039357     0.19700
C1090       C  0.23548208  0.64988751  0.30108235     0.22400
C1091       C  0.22650499  0.63491376  0.32222707    -0.39600
C1092       C  0.20018949  0.62737535  0.32107371     0.21200
N1093       N  0.16002145  0.62473835  0.30386341    -0.32900
C1094       C  0.16066203  0.61140387  0.32673842    -0.10500
C1095       C  0.18541815  0.61256161  0.33807970    -0.29300
N1096       N  0.25982828  0.65879546  0.29713704    -0.45900
C1097       C  0.25920842  0.67097055  0.27366367    -0.05200
C1098       C  0.23436236  0.67016254  0.26262524    -0.22500
H1099       H  0.18057687  0.65448762  0.26310139     0.19300
H1100       H  0.23913966  0.62932158  0.33823005     0.18100
H1101       H  0.19174157  0.60379923  0.35624833     0.14300
H1102       H  0.22829595  0.67798196  0.24394193     0.14200
H1103       H  0.14416061  0.62711525  0.29125792     0.23400
H1104       H  0.27604092  0.65620593  0.30925430     0.35100
C1105       C  0.37443717  0.79910375  0.31910321     0.20700
C1106       C  0.37869142  0.77389423  0.30903824    -0.39100
C1107       C  0.35784915  0.76303618  0.29479047     0.19700
C1108       C  0.33456980  0.77626593  0.29098911     0.22400
C1109       C  0.33033354  0.80139271  0.30099924    -0.39600
C1110       C  0.35115875  0.81225191  0.31507645     0.21200
N1111       N  0.39128611  0.81403251  0.33276846    -0.32900
C1112       C  0.37864930  0.83691617  0.33715505    -0.10500
C1113       C  0.35355381  0.83641304  0.32652408    -0.29300
N1114       N  0.31755737  0.76154598  0.27748666    -0.45900
C1115       C  0.32995795  0.73865514  0.27270508    -0.05200
C1116       C  0.35522770  0.73889892  0.28303075    -0.22500
H1117       H  0.39685789  0.76351261  0.31206179     0.19300
H1118       H  0.31214902  0.81175944  0.29800675     0.18100
H1119       H  0.33912994  0.85186400  0.32666135     0.14300
H1120       H  0.36934398  0.72316731  0.28278391     0.14200
H1121       H  0.41040502  0.80926294  0.33806225     0.32400
H1122       H  0.29845039  0.76652225  0.27232864     0.35100
C1123       C  0.25967824  0.14866079  0.32225605     0.20700
C1124       C  0.23848330  0.13386151  0.33152766    -0.39100
C1125       C  0.23984384  0.12632856  0.35787852     0.19700
C1126       C  0.26066636  0.13318905  0.37370918     0.22400
C1127       C  0.28190715  0.14781108  0.36441086    -0.39600
C1128       C  0.28062519  0.15518827  0.33808603     0.21200
N1129       N  0.26320595  0.15801470  0.29797463    -0.32900
C1130       C  0.28665331  0.17032491  0.29836998    -0.10500
C1131       C  0.29811425  0.16902388  0.32301932    -0.29300
N1132       N  0.25725031  0.12398672  0.39801594    -0.45900
C1133       C  0.23412988  0.11103745  0.39777092    -0.05200
C1134       C  0.22268998  0.11199314  0.37301982    -0.22500
H1135       H  0.22218106  0.12857565  0.31913894     0.19300
H1136       H  0.29826402  0.15301225  0.37676674     0.18100
H1137       H  0.31679925  0.17694321  0.32896170     0.14300
H1138       H  0.20423214  0.10361727  0.36700060     0.14200
H1139       H  0.25072306  0.15580610  0.28198123     0.32400
H1140       H  0.26995633  0.12642996  0.41379186     0.35100
C1141       C  0.38019119  0.14408099  0.20825394     0.20700
C1142       C  0.38936792  0.12233133  0.19417603    -0.39100
C1143       C  0.41476318  0.12454505  0.18395247     0.19700
C1144       C  0.42982327  0.14667628  0.18772646     0.22400
C1145       C  0.42065654  0.16840060  0.20174725    -0.39600
C1146       C  0.39525569  0.16625846  0.21178360     0.21200
N1147       N  0.35645043  0.14724748  0.21905370    -0.32900
C1148       C  0.35629270  0.17169727  0.22927865    -0.10500
C1149       C  0.38025729  0.18409902  0.22531153    -0.29300
N1150       N  0.45324019  0.14400879  0.17622654    -0.45900
C1151       C  0.45324195  0.12004364  0.16490060    -0.05200
C1152       C  0.42948602  0.10729329  0.16921813    -0.22500
H1153       H  0.37750360  0.10508743  0.19117151     0.19300
H1154       H  0.43236068  0.18581350  0.20440208     0.18100
H1155       H  0.38566590  0.20374604  0.23094903     0.14300
H1156       H  0.42390507  0.08793105  0.16282122     0.14200
H1157       H  0.34097748  0.13393956  0.21878629     0.32400
H1158       H  0.46831942  0.15775632  0.17615494     0.35100
C1159       C  0.23449774  0.29908402  0.18801637     0.20700
C1160       C  0.24568366  0.27450973  0.18282301    -0.39100
C1161       C  0.26092553  0.26380499  0.20303713     0.19700
C1162       C  0.26456365  0.27657166  0.22660835     0.22400
C1163       C  0.25340328  0.30102963  0.23179177    -0.39600
C1164       C  0.23838046  0.31177392  0.21158128     0.21200
N1165       N  0.22001686  0.31392629  0.17179056    -0.32900
C1166       C  0.21498581  0.33633296  0.18507289    -0.10500
C1167       C  0.22599867  0.33556211  0.21000215    -0.29300
N1168       N  0.27926744  0.26216968  0.24285892    -0.45900
C1169       C  0.28504075  0.23994868  0.22968052    -0.05200
C1170       C  0.27406210  0.24028550  0.20468238    -0.22500
H1171       H  0.24284762  0.26453392  0.16438992     0.19300
H1172       H  0.25635171  0.31105548  0.25018303     0.18100
H1173       H  0.22567656  0.35071299  0.22475122     0.14300
H1174       H  0.27475747  0.22494547  0.19014284     0.14200
H1175       H  0.21478863  0.30952792  0.15255877     0.32400
H1176       H  0.28456585  0.26688677  0.26199876     0.35100
C1177       C  0.37833288  0.26224744  0.14495853     0.20700
C1178       C  0.36850848  0.26719853  0.17016456    -0.39100
C1179       C  0.35475390  0.24648827  0.18189320     0.19700
C1180       C  0.35120841  0.22273505  0.16943915     0.22400
C1181       C  0.36093188  0.21783459  0.14433551    -0.39600
C1182       C  0.37447900  0.23849827  0.13261067     0.21200
N1183       N  0.39183385  0.27865342  0.12940737    -0.32900
C1184       C  0.39627997  0.26522591  0.10697031    -0.10500
C1185       C  0.38577092  0.24013718  0.10831314    -0.29300
N1186       N  0.33815615  0.20598685  0.18480013    -0.45900
C1187       C  0.33338199  0.21900004  0.20733841    -0.05200
C1188       C  0.34327278  0.24442795  0.20624940    -0.22500
H1189       H  0.37140265  0.28573214  0.17992509     0.19300
H1190       H  0.35815744  0.19924857  0.13463355     0.18100
H1191       H  0.38611617  0.22514858  0.09339723     0.14300
H1192       H  0.34287284  0.25903674  0.22153501     0.14200
H1193       H  0.39711192  0.29792718  0.13352943     0.32400
H1194       H  0.33321854  0.18667394  0.18042833     0.35100
C1195       C  0.33677082  0.10923558  0.29105428     0.20700
C1196       C  0.33204738  0.08343397  0.29899913    -0.39100
C1197       C  0.35249029  0.07128373  0.31261252     0.19700
C1198       C  0.37577447  0.08392300  0.31806910     0.22400
C1199       C  0.38054855  0.10969163  0.30997635    -0.39600
C1200       C  0.36016539  0.12180232  0.29622283     0.21200
N1201       N  0.32026898  0.12520410  0.27838052    -0.32900
C1202       C  0.33325297  0.14808904  0.27540863    -0.10500
C1203       C  0.35824179  0.14671461  0.28619269    -0.29300
N1204       N  0.39194976  0.06820385  0.33152922    -0.45900
C1205       C  0.37895197  0.04531487  0.33448493    -0.05200
C1206       C  0.35427706  0.04649536  0.32290965    -0.22500
H1207       H  0.31375944  0.07359387  0.29498911     0.19300
H1208       H  0.39873229  0.11962766  0.31420517     0.18100
H1209       H  0.37270974  0.16210572  0.28715493     0.14300
H1210       H  0.33959840  0.03129333  0.32215086     0.14200
H1211       H  0.30123444  0.12094299  0.27237201     0.32400
H1212       H  0.41077457  0.07268132  0.33800964     0.35100
C1213       C  0.91354335  0.26293677  0.31763470     0.20700
C1214       C  0.88809047  0.25365510  0.32206415    -0.39100
C1215       C  0.87698595  0.23917973  0.30156588     0.19700
C1216       C  0.89017570  0.23449198  0.27840261     0.22400
C1217       C  0.91553966  0.24377737  0.27395825    -0.39600
C1218       C  0.92669646  0.25801707  0.29450269     0.21200
N1219       N  0.92883383  0.27630415  0.33434392    -0.32900
C1220       C  0.95196799  0.27953623  0.32182093    -0.10500
C1221       C  0.95128014  0.26854110  0.29688790    -0.29300
N1222       N  0.87525042  0.22075174  0.26179584    -0.45900
C1223       C  0.85231012  0.21674952  0.27438508    -0.05200
C1224       C  0.85267839  0.22779176  0.29931626    -0.22500
H1225       H  0.87777127  0.25727997  0.34017169     0.19300
H1226       H  0.92591282  0.23999999  0.25590917     0.18100
H1227       H  0.96690388  0.26773731  0.28265109     0.14300
H1228       H  0.83693620  0.22821752  0.31343778     0.14200
H1229       H  0.92417176  0.28197727  0.35339045     0.32400
H1230       H  0.88014398  0.21490389  0.24285944     0.35100
C1231       C  0.23872543  0.23702014  0.30365530     0.20700
C1232       C  0.22890757  0.25163748  0.32476197    -0.39100
C1233       C  0.20217022  0.25778093  0.32359590     0.19700
C1234       C  0.18653008  0.24979754  0.30303170     0.22400
C1235       C  0.19635392  0.23534136  0.28191790    -0.39600
C1236       C  0.22302744  0.22935482  0.28299782     0.21200
N1237       N  0.26346387  0.22904942  0.29985099    -0.32900
C1238       C  0.26346770  0.21651349  0.27650765    -0.10500
C1239       C  0.23862187  0.21622015  0.26542205    -0.29300
N1240       N  0.16190088  0.25811837  0.30633529    -0.45900
C1241       C  0.16169551  0.27167454  0.32910143    -0.05200
C1242       C  0.18650767  0.27191536  0.34049187    -0.22500
H1243       H  0.24120378  0.25791127  0.34078285     0.19300
H1244       H  0.18413986  0.22936644  0.26571900     0.18100
H1245       H  0.23289411  0.20779800  0.24688885     0.14300
H1246       H  0.19230517  0.28118258  0.35859398     0.14200
H1247       H  0.27948305  0.23232344  0.31206288     0.32400
H1248       H  0.14625293  0.25491789  0.29364132     0.35100
C1249       C  0.42777203  0.73766364  0.81483706     0.20700
C1250       C  0.41784764  0.71630622  0.80080507    -0.39100
C1251       C  0.39248032  0.71927686  0.79095568     0.19700
C1252       C  0.37804882  0.74182082  0.79475629     0.22400
C1253       C  0.38795585  0.76318778  0.80894265    -0.39600
C1254       C  0.41339269  0.76019328  0.81888142     0.21200
N1255       N  0.45152346  0.73973575  0.82574496    -0.32900
C1256       C  0.45245783  0.76374765  0.83690732    -0.10500
C1257       C  0.42892444  0.77707997  0.83319349    -0.29300
N1258       N  0.35417022  0.73939609  0.78402378    -0.45900
C1259       C  0.35334851  0.71504444  0.77358760    -0.05200
C1260       C  0.37698653  0.70200598  0.77732601    -0.22500
H1261       H  0.42904139  0.69861224  0.79785926     0.19300
H1262       H  0.37666165  0.78077840  0.81209543     0.18100
H1263       H  0.42407763  0.79665791  0.83952572     0.14300
H1264       H  0.38181502  0.68223976  0.77158385     0.14200
H1265       H  0.46628025  0.72565527  0.82538851     0.32400
H1266       H  0.33902608  0.75305912  0.78454430     0.35100
C1267       C  0.69991841  0.75785664  0.81959773     0.20700
C1268       C  0.72511053  0.76337314  0.81016952    -0.39100
C1269       C  0.73637324  0.74399447  0.79434577     0.19700
C1270       C  0.72354509  0.72087707  0.78858053     0.22400
C1271       C  0.69848126  0.71534412  0.79805366    -0.39600
C1272       C  0.68717170  0.73476090  0.81363977     0.21200
N1273       N  0.68464649  0.77327651  0.83441787    -0.32900
C1274       C  0.66195284  0.75995562  0.83761740    -0.10500
C1275       C  0.66289061  0.73579611  0.82506815    -0.29300
N1276       N  0.73876734  0.70511299  0.77423850    -0.45900
C1277       C  0.76154563  0.71814375  0.77096561    -0.05200
C1278       C  0.76077852  0.74259634  0.78298447    -0.22500
H1279       H  0.73519583  0.78136248  0.81484298     0.19300
H1280       H  0.68852041  0.69722379  0.79361789     0.18100
H1281       H  0.64765284  0.72117952  0.82393890     0.14300
H1282       H  0.77648026  0.75668091  0.78448439     0.14200
H1283       H  0.68910059  0.79198372  0.84123886     0.32400
H1284       H  0.73440088  0.68617332  0.76801441     0.35100
C1285       C  0.26865474  0.27234339  0.78402139     0.20700
C1286       C  0.26111217  0.29839960  0.78033147    -0.39100
C1287       C  0.24861016  0.31027462  0.80162710     0.19700
C1288       C  0.24370246  0.29717660  0.82477762     0.22400
C1289       C  0.25136132  0.27108511  0.82850783    -0.39600
C1290       C  0.26409888  0.25924725  0.80725468     0.21200
N1291       N  0.28073220  0.25674471  0.76671335    -0.32900
C1292       C  0.28397219  0.23354177  0.77900218    -0.10500
C1293       C  0.27393756  0.23434062  0.80436129    -0.29300
N1294       N  0.23155182  0.31294111  0.84199751    -0.45900
C1295       C  0.22898932  0.33629550  0.82975415    -0.05200
C1296       C  0.23939106  0.33533057  0.80455411    -0.22500
H1297       H  0.26479590  0.30870728  0.76223457     0.19300
H1298       H  0.24774154  0.26079009  0.84662159     0.18100
H1299       H  0.27353998  0.21866340  0.81853739     0.14300
H1300       H  0.24018503  0.35089706  0.79027392     0.14200
H1301       H  0.28636214  0.26151266  0.74767792     0.32400
H1302       H  0.22579031  0.30824656  0.86100759     0.35100
C1303       C  0.26584053  0.60815536  0.77878028     0.20700
C1304       C  0.25709776  0.58250826  0.77456705    -0.39100
C1305       C  0.24298109  0.57121351  0.79520249     0.19700
C1306       C  0.23769737  0.58453872  0.81814751     0.22400
C1307       C  0.24649380  0.61018249  0.82236051    -0.39600
C1308       C  0.26085261  0.62138762  0.80184780     0.21200
N1309       N  0.27940727  0.62327979  0.76214423    -0.32900
C1310       C  0.28312896  0.64628712  0.77472983    -0.10500
C1311       C  0.27194506  0.64582637  0.79958740    -0.29300
N1312       N  0.22455772  0.56922785  0.83500992    -0.45900
C1313       C  0.22179050  0.54584532  0.82287729    -0.05200
C1314       C  0.23289903  0.54641049  0.79793678    -0.22500
H1315       H  0.26119560  0.57203676  0.75664861     0.19300
H1316       H  0.24262597  0.62057279  0.84037372     0.18100
H1317       H  0.27134477  0.66155179  0.81371253     0.14300
H1318       H  0.23408824  0.53059208  0.78395275     0.14200
H1319       H  0.28541199  0.61845737  0.74323571     0.32400
H1320       H  0.21873127  0.57408184  0.85396200     0.35100
C1321       C  0.70056361  0.12296365  0.81827635     0.20700
C1322       C  0.72645852  0.11918383  0.80985943    -0.39100
C1323       C  0.73752391  0.13985186  0.79552750     0.19700
C1324       C  0.72388927  0.16260355  0.79027563     0.22400
C1325       C  0.69807130  0.16636582  0.79865669    -0.39600
C1326       C  0.68694811  0.14563431  0.81268705     0.21200
N1327       N  0.68546842  0.10621230  0.83185249    -0.32900
C1328       C  0.66202569  0.11826446  0.83469641    -0.10500
C1329       C  0.66225372  0.14288289  0.82298667    -0.29300
N1330       N  0.73876938  0.17947050  0.77675766    -0.45900
C1331       C  0.76208434  0.16743975  0.77325443    -0.05200
C1332       C  0.76206457  0.14262270  0.78460865    -0.22500
H1333       H  0.73715377  0.10144368  0.81406536     0.19300
H1334       H  0.68737750  0.18410963  0.79445124     0.18100
H1335       H  0.64644207  0.15687860  0.82201654     0.14300
H1336       H  0.77806668  0.12882896  0.78533160     0.14200
H1337       H  0.69065588  0.08759861  0.83838358     0.32400
H1338       H  0.73351556  0.19816807  0.77051514     0.35100
C1339       C  0.37799287  0.13748882  0.79765813     0.20700
C1340       C  0.38765617  0.11630023  0.81215368    -0.39100
C1341       C  0.41387256  0.11822620  0.81996475     0.19700
C1342       C  0.42922367  0.13958181  0.81367479     0.22400
C1343       C  0.41955435  0.16079187  0.79929569    -0.39600
C1344       C  0.39335748  0.15892870  0.79162052     0.21200
N1345       N  0.35361213  0.14070524  0.78848653    -0.32900
C1346       C  0.35346625  0.16446489  0.77683895    -0.10500
C1347       C  0.37789618  0.17638914  0.77825597    -0.29300
N1348       N  0.45349636  0.13665126  0.82309594    -0.45900
C1349       C  0.45371245  0.11326095  0.83552339    -0.05200
C1350       C  0.42928895  0.10120167  0.83409193    -0.22500
H1351       H  0.37562312  0.09962634  0.81708917     0.19300
H1352       H  0.43151427  0.17758173  0.79456882     0.18100
H1353       H  0.38336301  0.19546252  0.77095753     0.14300
H1354       H  0.42366852  0.08241817  0.84199301     0.14200
H1355       H  0.33784928  0.12790846  0.79057603     0.32400
H1356       H  0.46897625  0.14978163  0.82101467     0.35100
C1357       C  0.87788943  0.58803248  0.81903725     0.20700
C1358       C  0.86993661  0.61411148  0.82286713    -0.39100
C1359       C  0.85437615  0.62494268  0.80290195     0.19700
C1360       C  0.84755592  0.61088578  0.78080907     0.22400
C1361       C  0.85550964  0.58500464  0.77698844    -0.39600
C1362       C  0.87076729  0.57417856  0.79693958     0.21200
N1363       N  0.89212211  0.57286511  0.83525019    -0.32900
C1364       C  0.89375669  0.54917575  0.82336397    -0.10500
C1365       C  0.88076486  0.54941562  0.79940754    -0.29300
N1366       N  0.83335059  0.62554333  0.76436590    -0.45900
C1367       C  0.83100585  0.64920978  0.77591751    -0.05200
C1368       C  0.84372787  0.64962474  0.80009151    -0.22500
H1369       H  0.87536358  0.62510217  0.84010162     0.19300
H1370       H  0.85010250  0.57402593  0.75973604     0.18100
H1371       H  0.87848727  0.53344693  0.78573978     0.14300
H1372       H  0.84574977  0.66605159  0.81325012     0.14200
H1373       H  0.89964548  0.57808346  0.85348872     0.32400
H1374       H  0.82620414  0.62002517  0.74605854     0.35100
C1375       C  0.87414130  0.30122778  0.81629488     0.20700
C1376       C  0.86561350  0.27548167  0.82045993    -0.39100
C1377       C  0.85095632  0.26430498  0.80013613     0.19700
C1378       C  0.84541854  0.27765045  0.77727271     0.22400
C1379       C  0.85378766  0.30345221  0.77316591    -0.39600
C1380       C  0.86822955  0.31471080  0.79361480     0.21200
N1381       N  0.88807185  0.31630358  0.83275187    -0.32900
C1382       C  0.89076134  0.33970000  0.82062549    -0.10500
C1383       C  0.87868887  0.33939536  0.79613273    -0.29300
N1384       N  0.83215645  0.26231902  0.76054483    -0.45900
C1385       C  0.82919624  0.23906758  0.77288325    -0.05200
C1386       C  0.84047597  0.23961916  0.79769161    -0.22500
H1387       H  0.87012539  0.26489301  0.83819451     0.19300
H1388       H  0.84942352  0.31396900  0.75534892     0.18100
H1389       H  0.87746717  0.35519850  0.78214717     0.14300
H1390       H  0.84169541  0.22373671  0.81158732     0.14200
H1391       H  0.89476733  0.31119025  0.85133578     0.32400
H1392       H  0.82600823  0.26711655  0.74168565     0.35100
C1393       C  0.84974254  0.27642686  0.22355768     0.20700
C1394       C  0.85895861  0.30177811  0.22797066    -0.39100
C1395       C  0.87486448  0.31212477  0.20826965     0.19700
C1396       C  0.88138647  0.29826660  0.18596056     0.22400
C1397       C  0.87217579  0.27281871  0.18156593    -0.39600
C1398       C  0.85599559  0.26253639  0.20117576     0.21200
N1399       N  0.83461432  0.26214921  0.23949589    -0.32900
C1400       C  0.83119593  0.23902259  0.22714552    -0.10500
C1401       C  0.84407795  0.23851187  0.20314912    -0.29300
N1402       N  0.89611029  0.31294036  0.16986387    -0.45900
C1403       C  0.89863082  0.33635900  0.18197686    -0.05200
C1404       C  0.88580855  0.33647100  0.20602560    -0.22500
H1405       H  0.85391730  0.31273692  0.24535004     0.19300
H1406       H  0.87704750  0.26192983  0.16409848     0.18100
H1407       H  0.84533701  0.22236872  0.18954895     0.14300
H1408       H  0.88402188  0.35247525  0.21972664     0.14200
H1409       H  0.82755938  0.26750351  0.25788960     0.32400
H1410       H  0.90315781  0.30767899  0.15143615     0.35100
C1411       C  0.87148347  0.58190136  0.18085945     0.20700
C1412       C  0.86445641  0.60815579  0.17699547    -0.39100
C1413       C  0.85116716  0.62010025  0.19784815     0.19700
C1414       C  0.84544004  0.60687773  0.22075678     0.22400
C1415       C  0.85218360  0.58063500  0.22448178    -0.39600
C1416       C  0.86534667  0.56870999  0.20366145     0.21200
N1417       N  0.88513826  0.56640611  0.16457650    -0.32900
C1418       C  0.88760575  0.54321834  0.17715510    -0.10500
C1419       C  0.87532101  0.54388291  0.20148029    -0.29300
N1420       N  0.83342378  0.62264406  0.23790978    -0.45900
C1421       C  0.83130955  0.64606319  0.22584932    -0.05200
C1422       C  0.84207986  0.64530239  0.20078342    -0.22500
H1423       H  0.86930231  0.61860036  0.15925625     0.19300
H1424       H  0.84783155  0.57035660  0.24244645     0.18100
H1425       H  0.87441710  0.52851038  0.21596346     0.14300
H1426       H  0.84335856  0.66113754  0.18683610     0.14200
H1427       H  0.89253594  0.57138511  0.14621650     0.32400
H1428       H  0.82704914  0.61783301  0.25669752     0.35100
C1429       C  0.68498968  0.73804437  0.19104421     0.20700
C1430       C  0.69459150  0.71718511  0.20602024    -0.39100
C1431       C  0.72085554  0.71910190  0.21355869     0.19700
C1432       C  0.73631537  0.74025106  0.20678264     0.22400
C1433       C  0.72677645  0.76098245  0.19160084    -0.39600
C1434       C  0.70051972  0.75903078  0.18399678     0.21200
N1435       N  0.66061961  0.74104732  0.18182050    -0.32900
C1436       C  0.66057698  0.76410315  0.16876686    -0.10500
C1437       C  0.68518100  0.77584123  0.16957713    -0.29300
N1438       N  0.76066711  0.73728934  0.21606438    -0.45900
C1439       C  0.76076808  0.71397155  0.22854063    -0.05200
C1440       C  0.73630202  0.70203668  0.22750557    -0.22500
H1441       H  0.68251064  0.70067324  0.21137376     0.19300
H1442       H  0.73890831  0.77741227  0.18611617     0.18100
H1443       H  0.69096602  0.79433779  0.16113478     0.14300
H1444       H  0.73081861  0.68319625  0.23537308     0.14200
H1445       H  0.64496356  0.72822266  0.18443222     0.32400
H1446       H  0.77648842  0.74991469  0.21343699     0.35100
C1447       C  0.41334802  0.75949040  0.18089665     0.20700
C1448       C  0.38817280  0.76426524  0.19073187    -0.39100
C1449       C  0.37634585  0.74327307  0.20385062     0.19700
C1450       C  0.38862205  0.71936401  0.20686957     0.22400
C1451       C  0.41378422  0.71463379  0.19716889    -0.39600
C1452       C  0.42562650  0.73562369  0.18417608     0.21200
N1453       N  0.42894014  0.77624436  0.16792988    -0.32900
C1454       C  0.45136295  0.76294223  0.16319174    -0.10500
C1455       C  0.44996873  0.73756740  0.17300787    -0.29300
N1456       N  0.37314723  0.70249590  0.21968562    -0.45900
C1457       C  0.35083537  0.71575014  0.22488419    -0.05200
C1458       C  0.35210158  0.74126279  0.21537716    -0.22500
H1459       H  0.37851286  0.78291656  0.18835461     0.19300
H1460       H  0.42345060  0.69598850  0.19958781     0.18100
H1461       H  0.46488072  0.72260050  0.17232147     0.14300
H1462       H  0.33708114  0.75610684  0.21635383     0.14200
H1463       H  0.42483064  0.79565117  0.16317601     0.32400
H1464       H  0.37739980  0.68312275  0.22446459     0.35100
C1465       C  0.85852740  0.75482195  0.36938143     0.20700
C1466       C  0.83597636  0.74248910  0.35997019    -0.39100
C1467       C  0.83780440  0.73219614  0.33471617     0.19700
C1468       C  0.86036977  0.73405975  0.31990909     0.22400
C1469       C  0.88298212  0.74647345  0.32932378    -0.39600
C1470       C  0.88114230  0.75685115  0.35466492     0.21200
N1471       N  0.86179589  0.76566988  0.39298040    -0.32900
C1472       C  0.88665387  0.77475588  0.39345635    -0.10500
C1473       C  0.89937286  0.76978726  0.36981908    -0.29300
N1474       N  0.85680819  0.72317338  0.29629388    -0.45900
C1475       C  0.83176194  0.71451661  0.29607652    -0.05200
C1476       C  0.81936851  0.71956664  0.31980688    -0.22500
H1477       H  0.81828543  0.74103894  0.37148187     0.19300
H1478       H  0.90063903  0.74797678  0.31777116     0.18100
H1479       H  0.91937892  0.77435672  0.36470280     0.14300
H1480       H  0.79940416  0.71508654  0.32516933     0.14200
H1481       H  0.84793622  0.76660896  0.40793844     0.32400
H1482       H  0.87031804  0.72226589  0.28101255     0.35100
C1483       C  0.86032645  0.75064364  0.62729109     0.20700
C1484       C  0.83807411  0.73780450  0.63692936    -0.39100
C1485       C  0.83932486  0.72973966  0.66308417     0.19700
C1486       C  0.86115987  0.73400237  0.67845227     0.22400
C1487       C  0.88340488  0.74702039  0.66883646    -0.39600
C1488       C  0.88209162  0.75525162  0.64265024     0.21200
N1489       N  0.86388693  0.76011350  0.60308800    -0.32900
C1490       C  0.88804695  0.77101264  0.60287320    -0.10500
C1491       C  0.90002791  0.76845317  0.62728443    -0.29300
N1492       N  0.85723547  0.72481765  0.70277630    -0.45900
C1493       C  0.83262719  0.71493996  0.70298216    -0.05200
C1494       C  0.82089602  0.71751248  0.67849843    -0.22500
H1495       H  0.82095743  0.73448535  0.62496193     0.19300
H1496       H  0.90039696  0.75061397  0.68089838     0.18100
H1497       H  0.91929791  0.77507743  0.63293268     0.14300
H1498       H  0.80134732  0.71167917  0.67293256     0.14200
H1499       H  0.85055027  0.75925255  0.58767156     0.32400
H1500       H  0.87019610  0.72581169  0.71850777     0.35100
C1501       C  0.87502807  0.12411415  0.64176836     0.20700
C1502       C  0.87973653  0.13407966  0.66693050    -0.39100
C1503       C  0.85894513  0.14790414  0.67835928     0.19700
C1504       C  0.83529665  0.15140515  0.66570625     0.22400
C1505       C  0.83060906  0.14149939  0.64061580    -0.39600
C1506       C  0.85140017  0.12786555  0.62915932     0.21200
N1507       N  0.89170075  0.11074723  0.62641372    -0.32900
C1508       C  0.87861914  0.10629877  0.60379155    -0.10500
C1509       C  0.85341858  0.11660332  0.60485560    -0.29300
N1510       N  0.81845651  0.16457275  0.68089814    -0.45900
C1511       C  0.83135422  0.16940201  0.70350286    -0.05200
C1512       C  0.85674807  0.15947323  0.70261459    -0.22500
H1513       H  0.89819091  0.13128449  0.67686376     0.19300
H1514       H  0.81212920  0.14425247  0.63071242     0.18100
H1515       H  0.83866467  0.11626989  0.58971451     0.14300
H1516       H  0.87124761  0.15988055  0.71799711     0.14200
H1517       H  0.91097834  0.10565755  0.63075136     0.32400
H1518       H  0.79918173  0.16952681  0.67638721     0.35100
C1519       C  0.85603793  0.13201098  0.37099997     0.20700
C1520       C  0.83414157  0.14552216  0.36157135    -0.39100
C1521       C  0.83563388  0.15390201  0.33556321     0.19700
C1522       C  0.85742681  0.14943077  0.32017083     0.22400
C1523       C  0.87937993  0.13584509  0.32961474    -0.39600
C1524       C  0.87776872  0.12718580  0.35564047     0.21200
N1525       N  0.85915612  0.12186256  0.39495318    -0.32900
C1526       C  0.88299217  0.11029730  0.39503524    -0.10500
C1527       C  0.89524548  0.11315685  0.37078063    -0.29300
N1528       N  0.85381342  0.15919829  0.29605103    -0.45900
C1529       C  0.82946410  0.16966870  0.29606692    -0.05200
C1530       C  0.81754398  0.16683172  0.32039445    -0.22500
H1531       H  0.81707046  0.14903141  0.37356282     0.19300
H1532       H  0.89633099  0.13209699  0.31752955     0.18100
H1533       H  0.91434460  0.10610824  0.36506548     0.14300
H1534       H  0.79822122  0.17325416  0.32610320     0.14200
H1535       H  0.84569601  0.12268916  0.41027382     0.32400
H1536       H  0.86688711  0.15846154  0.28038679     0.35100
C1537       C  0.25475171  0.73351239  0.67966118     0.20700
C1538       C  0.23252551  0.74595653  0.66937974    -0.39100
C1539       C  0.23444772  0.75402531  0.64320207     0.19700
C1540       C  0.25674251  0.74978569  0.62847783     0.22400
C1541       C  0.27894559  0.73750281  0.63877514    -0.39600
C1542       C  0.27708535  0.72960403  0.66490033     0.21200
N1543       N  0.25813252  0.72442272  0.70407396    -0.32900
C1544       C  0.28286077  0.71491145  0.70484411    -0.10500
C1545       C  0.29524117  0.71768148  0.68074198    -0.29300
N1546       N  0.25385256  0.75934277  0.60425405    -0.45900
C1547       C  0.22963099  0.77000816  0.60344956    -0.05200
C1548       C  0.21686152  0.76707853  0.62740670    -0.22500
H1549       H  0.21513879  0.74929808  0.68095522     0.19300
H1550       H  0.29647699  0.73450104  0.62732219     0.18100
H1551       H  0.31494544  0.71194546  0.67563776     0.14300
H1552       H  0.19744826  0.77367135  0.63258354     0.14200
H1553       H  0.24467107  0.72503708  0.71941133     0.32400
H1554       H  0.26776790  0.75898039  0.58932430     0.35100
C1555       C  0.23787945  0.75996799  0.35805274     0.20700
C1556       C  0.23331530  0.75088293  0.33257769    -0.39100
C1557       C  0.25433998  0.73785043  0.32073426     0.19700
C1558       C  0.27798048  0.73406713  0.33334858     0.22400
C1559       C  0.28245859  0.74296370  0.35879446    -0.39600
C1560       C  0.26153050  0.75601089  0.37057216     0.21200
N1561       N  0.22134443  0.77334015  0.37350436    -0.32900
C1562       C  0.23466904  0.77772716  0.39598056    -0.10500
C1563       C  0.25972446  0.76717238  0.39485875    -0.29300
N1564       N  0.29501439  0.72165495  0.31778427    -0.45900
C1565       C  0.28217934  0.71757670  0.29503630    -0.05200
C1566       C  0.25674136  0.72733084  0.29610813    -0.22500
H1567       H  0.21491324  0.75396748  0.32263003     0.19300
H1568       H  0.30097408  0.74015591  0.36861606     0.18100
H1569       H  0.27469054  0.76766781  0.40978401     0.14300
H1570       H  0.24220746  0.72714789  0.28075356     0.14200
H1571       H  0.20219185  0.77886862  0.36914972     0.32400
H1572       H  0.31421943  0.71641386  0.32227314     0.35100
loop_ 
_geom_bond_atom_site_label_1 
_geom_bond_atom_site_label_2 
_geom_bond_distance 
_geom_bond_site_symmetry_2 
_ccdc_geom_bond_type 
N1            N2   1.321       .  A
N1            C5   1.339       .  A
N1           Cu9   2.058       .  S
N2            C3   1.348       .  A
N2           Cu8   2.074       .  S
C3            C4   1.385       .  A
C3            H6   1.082       .  S
C4            C5   1.379       .  A
C4         C1562   1.469       .  S
C5            H7   1.082       .  S
Cu8          N11   2.076       .  S
Cu9          N19   2.060       .  S
Cu10         N12   2.086       .  S
Cu10         N18   2.085       .  S
N11          N12   1.325       .  A
N11          C15   1.345       .  A
N12          C13   1.346       .  A
C13          C14   1.384       .  A
C13          H16   1.082       .  S
C14          C15   1.382       .  A
C14         C637   1.471       .  S
C15          H17   1.082       .  S
N18          N19   1.321       .  A
N18          C22   1.349       .  A
N19          C20   1.342       .  A
C20          C21   1.381       .  A
C20          H23   1.082       .  S
C21          C22   1.388       .  A
C21        C1547   1.475       .  S
C22          H24   1.082       .  S
N25          N26   1.321       .  A
N25          C29   1.341       .  A
N25         Cu33   2.062       .  S
N26          C27   1.352       .  A
N26         Cu32   2.096       .  S
C27          C28   1.390       .  A
C27          H30   1.082       .  S
C28          C29   1.381       .  A
C28        C1526   1.479       .  S
C29          H31   1.081       .  S
Cu32         N35   2.097       .  S
Cu33         N43   2.062       .  S
Cu34         N36   2.089       .  S
Cu34         N42   2.087       .  S
N35          N36   1.326       .  A
N35          C39   1.348       .  A
N36          C37   1.348       .  A
C37          C38   1.384   1_645  A
C37          H40   1.082       .  S
C38          C39   1.385   1_465  A
C38         C638   1.477       .  S
C39          H41   1.082       .  S
N42          N43   1.321       .  A
N42          C46   1.349       .  A
N43          C44   1.342       .  A
C44          C45   1.381       .  A
C44          H47   1.082       .  S
C45          C46   1.387       .  A
C45        C1508   1.474       .  S
C46          H48   1.082       .  S
N49          N50   1.321       .  A
N49          C53   1.341       .  A
N49         Cu57   2.064       .  S
N50          C51   1.349       .  A
N50         Cu56   2.082       .  S
C51          C52   1.387       .  A
C51          H54   1.082       .  S
C52          C53   1.380       .  A
C52        C1472   1.472       .  S
C53          H55   1.082       .  S
Cu56         N59   2.084       .  S
Cu57         N67   2.065       .  S
Cu58         N60   2.090       .  S
Cu58         N66   2.089       .  S
N59          N60   1.325       .  A
N59          C63   1.347       .  A
N60          C61   1.346       .  A
C61          C62   1.383   1_655  A
C61          H64   1.082       .  S
C62          C63   1.384   1_455  A
C62         C636   1.473       .  S
C63          H65   1.082       .  S
N66          N67   1.321       .  A
N66          C70   1.350       .  A
N67          C68   1.343       .  A
C68          C69   1.382       .  A
C68          H71   1.082       .  S
C69          C70   1.390       .  A
C69        C1490   1.480       .  S
C70          H72   1.082       .  S
N73          N74   1.321       .  A
N73          C77   1.341       .  A
N73         Cu81   2.064       .  S
N74          C75   1.350       .  A
N74         Cu80   2.081       .  S
C75          C76   1.388       .  A
C75          H78   1.082       .  S
C76          C77   1.380       .  A
C76        C1454   1.474       .  S
C77          H79   1.082       .  S
Cu80         N83   2.083       .  S
Cu81         N91   2.065       .  S
Cu82         N84   2.080       .  S
Cu82         N90   2.079       .  S
N83          N84   1.325       .  A
N83          C87   1.345       .  A
N84          C85   1.346       .  A
C85          C86   1.382       .  A
C85          H88   1.082       .  S
C86          C87   1.382       .  A
C86         C651   1.470       .  S
C87          H89   1.082       .  S
N90          N91   1.321       .  A
N90          C94   1.347       .  A
N91          C92   1.343       .  A
C92          C93   1.382       .  A
C92          H95   1.082       .  S
C93          C94   1.387       .  A
C93        C1436   1.475       .  S
C94          H96   1.082       .  S
N97          N98   1.320       .  A
N97         C101   1.341       .  A
N97        Cu105   2.054       .  S
N98          C99   1.349       .  A
N98        Cu104   2.085       .  S
C99         C100   1.388       .  A
C99         H102   1.082       .  S
C100        C101   1.381       .  A
C100       C1418   1.474       .  S
C101        H103   1.082       .  S
Cu104       N107   2.088       .  S
Cu105       N115   2.053       .  S
Cu106       N108   2.080       .  S
Cu106       N114   2.078       .  S
N107        N108   1.326       .  A
N107        C111   1.347       .  A
N108        C109   1.344       .  A
C109        C110   1.381   1_655  A
C109        H112   1.082       .  S
C110        C111   1.384   1_455  A
C110        C666   1.471       .  S
C111        H113   1.082       .  S
N114        N115   1.320       .  A
N114        C118   1.350       .  A
N115        C116   1.338       .  A
C116        C117   1.379       .  A
C116        H119   1.082       .  S
C117        C118   1.388       .  A
C117       C1403   1.471       .  S
C118        H120   1.082       .  S
N121        N122   1.321       .  A
N121        C125   1.341       .  A
N121       Cu129   2.065       .  S
N122        C123   1.353       .  A
N122       Cu128   2.094       .  S
C123        C124   1.391       .  A
C123        H126   1.082       .  S
C124        C125   1.382       .  A
C124       C1364   1.481       .  S
C125        H127   1.082       .  S
Cu128       N131   2.096       .  S
Cu129       N139   2.065       .  S
Cu130       N132   2.102       .  S
Cu130       N138   2.100       .  S
N131        N132   1.327       .  A
N131        C135   1.348       .  A
N132        C133   1.350       .  A
C133        C134   1.387   1_655  A
C133        H136   1.082       .  S
C134        C135   1.384   1_455  A
C134        C664   1.480       .  S
C135        H137   1.082       .  S
N138        N139   1.322       .  A
N138        C142   1.351       .  A
N139        C140   1.343       .  A
C140        C141   1.381       .  A
C140        H143   1.082       .  S
C141        C142   1.390       .  A
C141       C1382   1.479       .  S
C142        H144   1.082       .  S
N145        N146   1.321       .  A
N145        C149   1.341       .  A
N145       Cu153   2.060       .  S
N146        C147   1.349       .  A
N146       Cu152   2.083       .  S
C147        C148   1.388       .  A
C147        H150   1.082       .  S
C148        C149   1.380       .  A
C148       C1349   1.474       .  S
C149        H151   1.081       .  S
Cu152       N155   2.084       .  S
Cu153       N163   2.061       .  S
Cu154       N156   2.089       .  S
Cu154       N162   2.087       .  S
N155        N156   1.326       .  A
N155        C159   1.346       .  A
N156        C157   1.347       .  A
C157        C158   1.383   1_545  A
C157        H160   1.082       .  S
C158        C159   1.382   1_565  A
C158        C652   1.472       .  S
C159        H161   1.082       .  S
N162        N163   1.321       .  A
N162        C166   1.350       .  A
N163        C164   1.342       .  A
C164        C165   1.382       .  A
C164        H167   1.082       .  S
C165        C166   1.389       .  A
C165       C1328   1.477       .  S
C166        H168   1.082       .  S
N169        N170   1.321       .  A
N169        C173   1.341       .  A
N169       Cu177   2.059       .  S
N170        C171   1.351       .  A
N170       Cu176   2.092       .  S
C171        C172   1.389       .  A
C171        H174   1.082       .  S
C172        C173   1.380       .  A
C172       C1295   1.476       .  S
C173        H175   1.082       .  S
Cu176       N179   2.094       .  S
Cu177       N187   2.059       .  S
Cu178       N180   2.096       .  S
Cu178       N186   2.094       .  S
N179        N180   1.326       .  A
N179        C183   1.348       .  A
N180        C181   1.348       .  A
C181        C182   1.385       .  A
C181        H184   1.082       .  S
C182        C183   1.384       .  A
C182        C665   1.477       .  S
C183        H185   1.082       .  S
N186        N187   1.321       .  A
N186        C190   1.350       .  A
N187        C188   1.342       .  A
C188        C189   1.381       .  A
C188        H191   1.082       .  S
C189        C190   1.390       .  A
C189       C1313   1.477       .  S
C190        H192   1.082       .  S
N193        N194   1.322       .  A
N193        C197   1.342       .  A
N193       Cu201   2.064       .  S
N194        C195   1.347       .  A
N194       Cu200   2.082       .  S
C195        C196   1.385       .  A
C195        H198   1.082       .  S
C196        C197   1.382       .  A
C196       C1274   1.473       .  S
C197        H199   1.082       .  S
Cu200       N203   2.084       .  S
Cu201       N211   2.064       .  S
Cu202       N204   2.095       .  S
Cu202       N210   2.094       .  S
N203        N204   1.325       .  A
N203        C207   1.349       .  A
N204        C205   1.347       .  A
C205        C206   1.385       .  A
C205        H208   1.082       .  S
C206        C207   1.385       .  A
C206        C650   1.477       .  S
C207        H209   1.082       .  S
N210        N211   1.322       .  A
N210        C214   1.351       .  A
N211        C212   1.342       .  A
C212        C213   1.381       .  A
C212        H215   1.082       .  S
C213        C214   1.390       .  A
C213       C1256   1.478       .  S
C214        H216   1.082       .  S
N217        N218   1.321       .  A
N217        C221   1.342       .  A
N217       Cu225   2.060       .  S
N218        C219   1.350       .  A
N218       Cu224   2.090       .  S
C219        C220   1.389       .  A
C219        H222   1.082       .  S
C220        C221   1.381       .  A
C220       C1241   1.477       .  S
C221        H223   1.082       .  S
Cu224       N227   2.091       .  S
Cu225       N235   2.059       .  S
Cu226       N228   2.091       .  S
Cu226       N234   2.089       .  S
N227        N228   1.325       .  A
N227        C231   1.348       .  A
N228        C229   1.348       .  A
C229        C230   1.385       .  A
C229        H232   1.082       .  S
C230        C231   1.384       .  A
C230        C691   1.477       .  S
C231        H233   1.082       .  S
N234        N235   1.322       .  A
N234        C238   1.350   1_455  A
N235        C236   1.341       .  A
C236        C237   1.380   1_455  A
C236        H239   1.082       .  S
C237        C238   1.388       .  A
C237       C1220   1.473       .  S
C238        H240   1.082       .  S
C241        C242   1.411       .  A
C241        C246   1.414       .  A
C241       C1130   1.483       .  S
C242        C243   1.416       .  A
C242       C1238   1.483       .  S
C243        C244   1.418       .  A
C243       C1169   1.488       .  S
C244        C245   1.421       .  A
C244       C1187   1.486       .  S
C245        C246   1.415       .  A
C245       C1148   1.489       .  S
C246       C1202   1.485       .  S
N247        N248   1.321       .  A
N247        C251   1.343       .  A
N247       Cu255   2.060       .  S
N248        C249   1.349   1_565  A
N248       Cu254   2.087       .  S
C249        C250   1.388       .  A
C249        H252   1.082       .  S
C250        C251   1.381   1_545  A
C250       C1205   1.475       .  S
C251        H253   1.082       .  S
Cu254       N257   2.088       .  S
Cu255       N265   2.060       .  S
Cu256       N258   2.087       .  S
Cu256       N264   2.087       .  S
N257        N258   1.326       .  A
N257        C261   1.347       .  A
N258        C259   1.346       .  A
C259        C260   1.382       .  A
C259        H262   1.082       .  S
C260        C261   1.384       .  A
C260        C706   1.472       .  S
C261        H263   1.082       .  S
N264        N265   1.321       .  A
N264        C268   1.351       .  A
N265        C266   1.340       .  A
C266        C267   1.380       .  A
C266        H269   1.082       .  S
C267        C268   1.389       .  A
C267       C1112   1.476       .  S
C268        H270   1.082       .  S
C271        C272   1.415       .  A
C271        C276   1.416       .  A
C271       C1115   1.489       .  S
C272        C273   1.411       .  A
C272       C1565   1.481       .  S
C273        C274   1.410       .  A
C273       C1097   1.478       .  S
C274        C275   1.411       .  A
C274       C1058   1.485       .  S
C275        C276   1.419       .  A
C275       C1076   1.481       .  S
C276       C1457   1.484       .  S
C277        C278   1.412       .  A
C277        C282   1.415       .  A
C277       C1529   1.486       .  S
C278        C279   1.415       .  A
C278       C1223   1.484       .  S
C279        C280   1.413       .  A
C279       C1400   1.478       .  S
C280        C281   1.414       .  A
C280       C1022   1.488       .  S
C281        C282   1.414       .  A
C281       C1007   1.482       .  S
C282       C1043   1.479       .  S
N283        N284   1.321       .  A
N283        C287   1.341       .  A
N283       Cu291   2.058       .  S
N284        C285   1.350       .  A
N284       Cu290   2.089       .  S
C285        C286   1.389       .  A
C285        H288   1.082       .  S
C286        C287   1.380       .  A
C286        C986   1.475       .  S
C287        H289   1.082       .  S
Cu290       N293   2.091       .  S
Cu291       N301   2.057       .  S
Cu292       N294   2.088       .  S
Cu292       N300   2.086       .  S
N293        N294   1.326       .  A
N293        C297   1.347       .  A
N294        C295   1.347       .  A
C295        C296   1.383       .  A
C295        H298   1.082       .  S
C296        C297   1.384       .  A
C296        C708   1.475       .  S
C297        H299   1.082       .  S
N300        N301   1.321       .  A
N300        C304   1.350   1_565  A
N301        C302   1.340       .  A
C302        C303   1.379   1_565  A
C302        H305   1.082       .  S
C303        C304   1.388       .  A
C303       C1040   1.473       .  S
C304        H306   1.082       .  S
C307        C308   1.417       .  A
C307        C312   1.416       .  A
C307       C1475   1.484       .  S
C308        C309   1.411       .  A
C308        C989   1.486       .  S
C309        C310   1.414       .  A
C309       C1439   1.481       .  S
C310        C311   1.414       .  A
C310        C950   1.484       .  S
C311        C312   1.416       .  A
C311       C1421   1.483       .  S
C312        C971   1.487       .  S
N313        N314   1.320       .  A
N313        C317   1.342       .  A
N313       Cu321   2.054       .  S
N314        C315   1.349   1_455  A
N314       Cu320   2.089       .  S
C315        C316   1.388       .  A
C315        H318   1.082       .  S
C316        C317   1.381   1_655  A
C316        C968   1.475       .  S
C317        H319   1.082       .  S
Cu320       N323   2.091       .  S
Cu321       N331   2.054       .  S
Cu322       N324   2.088       .  S
Cu322       N330   2.085       .  S
N323        N324   1.325       .  A
N323        C327   1.348       .  A
N324        C325   1.347       .  A
C325        C326   1.385       .  A
C325        H328   1.082       .  S
C326        C327   1.384       .  A
C326        C694   1.478       .  S
C327        H329   1.082       .  S
N330        N331   1.321       .  A
N330        C334   1.349       .  A
N331        C332   1.340       .  A
C332        C333   1.378       .  A
C332        H335   1.081       .  S
C333        C334   1.388       .  A
C333       C1094   1.471       .  S
C334        H336   1.082       .  S
N337        N338   1.320       .  A
N337        C341   1.340       .  A
N337       Cu345   2.056       .  S
N338        C339   1.350       .  A
N338       Cu344   2.086       .  S
C339        C340   1.388       .  A
C339        H342   1.082       .  S
C340        C341   1.380       .  A
C340       C1184   1.474       .  S
C341        H343   1.082       .  S
Cu344       N347   2.088       .  S
Cu345       N355   2.056   1_554  S
Cu346       N348   2.096       .  S
Cu346       N354   2.094       .  S
N347        N348   1.326   1_554  A
N347        C351   1.346       .  A
N348        C349   1.349       .  A
C349        C350   1.385   1_556  A
C349        H352   1.082       .  S
C350        C351   1.383       .  A
C350        C677   1.475       .  S
C351        H353   1.082       .  S
N354        N355   1.321       .  A
N354        C358   1.350       .  A
N355        C356   1.342       .  A
C356        C357   1.379       .  A
C356        H359   1.082       .  S
C357        C358   1.390       .  A
C357        C932   1.476       .  S
C358        H360   1.082       .  S
C361        C362   1.416       .  A
C361        C366   1.419       .  A
C361       C1292   1.484       .  S
C362        C363   1.413       .  A
C362        C935   1.484       .  S
C363        C364   1.410       .  A
C363       C1346   1.481       .  S
C364        C365   1.416       .  A
C364        C917   1.486       .  S
C365        C366   1.416       .  A
C365        C878   1.482       .  S
C366        C899   1.492       .  S
N367        N368   1.322       .  A
N367        C371   1.342       .  A
N367       Cu375   2.058       .  S
N368        C369   1.350       .  A
N368       Cu374   2.096       .  S
C369        C370   1.389       .  A
C369        H372   1.082       .  S
C370        C371   1.380       .  A
C370        C863   1.476       .  S
C371        H373   1.082       .  S
Cu374       N377   2.099       .  S
Cu375       N385   2.058       .  S
Cu376       N378   2.090       .  S
Cu376       N384   2.088       .  S
N377        N378   1.325       .  A
N377        C381   1.349       .  A
N378        C379   1.348       .  A
C379        C380   1.384       .  A
C379        H382   1.082       .  S
C380        C381   1.387       .  A
C380        C707   1.480       .  S
C381        H383   1.082       .  S
N384        N385   1.321       .  A
N384        C388   1.350   1_565  A
N385        C386   1.340       .  A
C386        C387   1.381   1_565  A
C386        H389   1.082       .  S
C387        C388   1.388       .  A
C387        C914   1.475       .  S
C388        H390   1.082       .  S
C391        C392   1.418       .  A
C391        C396   1.415       .  A
C391        C860   1.484       .  S
C392        C393   1.413       .  A
C392       C1544   1.486       .  S
C393        C394   1.413       .  A
C393        C845   1.481       .  S
C394        C395   1.412       .  A
C394       C1310   1.486       .  S
C395        C396   1.417       .  A
C395        C824   1.479       .  S
C396       C1259   1.489       .  S
N397        N398   1.321       .  A
N397        C401   1.341       .  A
N397       Cu405   2.053       .  S
N398        C399   1.348   1_455  A
N398       Cu404   2.086       .  S
C399        C400   1.387       .  A
C399        H402   1.082       .  S
C400        C401   1.380   1_655  A
C400        C809   1.473       .  S
C401        H403   1.082       .  S
Cu404       N407   2.088       .  S
Cu405       N415   2.053       .  S
Cu406       N408   2.081       .  S
Cu406       N414   2.080       .  S
N407        N408   1.325       .  A
N407        C411   1.347       .  A
N408        C409   1.346       .  A
C409        C410   1.382       .  A
C409        H412   1.082       .  S
C410        C411   1.385       .  A
C410        C692   1.473       .  S
C411        H413   1.082       .  S
N414        N415   1.321       .  A
N414        C418   1.348       .  A
N415        C416   1.339       .  A
C416        C417   1.379       .  A
C416        H419   1.081       .  S
C417        C418   1.387       .  A
C417        C842   1.471       .  S
C418        H420   1.082       .  S
N421        N422   1.321       .  A
N421        C425   1.343       .  A
N421       Cu429   2.064       .  S
N422        C423   1.348   1_455  A
N422       Cu428   2.086       .  S
C423        C424   1.387       .  A
C423        H426   1.082       .  S
C424        C425   1.381   1_655  A
C424        C791   1.474       .  S
C425        H427   1.082       .  S
Cu428       N431   2.088       .  S
Cu429       N439   2.063       .  S
Cu430       N432   2.108       .  S
Cu430       N438   2.107       .  S
N431        N432   1.326       .  A
N431        C435   1.348       .  A
N432        C433   1.350       .  A
C433        C434   1.388       .  A
C433        H436   1.082       .  S
C434        C435   1.384       .  A
C434        C693   1.481       .  S
C435        H437   1.082       .  S
N438        N439   1.322       .  A
N438        C442   1.353       .  A
N439        C440   1.342       .  A
C440        C441   1.380       .  A
C440        H443   1.082       .  S
C441        C442   1.392       .  A
C441        C896   1.481       .  S
C442        H444   1.082       .  S
C445        C446   1.414       .  A
C445        C450   1.415       .  A
C445       C1331   1.489       .  S
C446        C447   1.418       .  A
C446        C773   1.484       .  S
C447        C448   1.416       .  A
C447       C1511   1.486       .  S
C448        C449   1.416       .  A
C448        C788   1.486       .  S
C449        C450   1.414       .  A
C449       C1385   1.488       .  S
C450        C752   1.480       .  S
N451        N452   1.321       .  A
N451        C455   1.343       .  A
N451       Cu459   2.067       .  S
N452        C453   1.350   1_565  A
N452       Cu458   2.090       .  S
C453        C454   1.389       .  A
C453        H456   1.082       .  S
C454        C455   1.382   1_545  A
C454        C770   1.478       .  S
C455        H457   1.082       .  S
Cu458       N461   2.091       .  S
Cu459       N469   2.067       .  S
Cu460       N462   2.085       .  S
Cu460       N468   2.084       .  S
N461        N462   1.325       .  A
N461        C465   1.347       .  A
N462        C463   1.347       .  A
C463        C464   1.384       .  A
C463        H466   1.082       .  S
C464        C465   1.385       .  A
C464        C705   1.475       .  S
C465        H467   1.082       .  S
N468        N469   1.322       .  A
N468        C472   1.349       .  A
N469        C470   1.342       .  A
C470        C471   1.382       .  A
C470        H473   1.082       .  S
C471        C472   1.388       .  A
C471        C737   1.477       .  S
C472        H474   1.082       .  S
C475        C476   1.418       .  A
C475        C480   1.413       .  A
C475       C1367   1.487       .  S
C476        C477   1.416       .  A
C476        C806   1.482       .  S
C477        C478   1.417       .  A
C477       C1493   1.491       .  S
C478        C479   1.417       .  A
C478        C734   1.489       .  S
C479        C480   1.419       .  A
C479       C1277   1.479       .  S
C480        C719   1.493       .  S
N481        N482   1.321       .  A
N481        C485   1.339       .  A
N481       Cu489   2.055       .  S
N482        C483   1.349       .  A
N482       Cu488   2.079       .  S
C483        C484   1.387       .  A
C483        H486   1.082       .  S
C484        C485   1.379       .  A
C484        C827   1.471       .  S
C485        H487   1.082       .  S
Cu488       N491   2.081       .  S
Cu489       N499   2.055   1_556  S
Cu490       N492   2.087       .  S
Cu490       N498   2.085       .  S
N491        N492   1.325   1_556  A
N491        C495   1.344       .  A
N492        C493   1.348       .  A
C493        C494   1.385       .  A
C493        H496   1.082       .  S
C494        C495   1.382   1_554  A
C494        C680   1.472       .  S
C495        H497   1.082       .  S
N498        N499   1.321       .  A
N498        C502   1.348       .  A
N499        C500   1.341       .  A
C500        C501   1.380       .  A
C500        H503   1.082       .  S
C501        C502   1.387       .  A
C501       C1079   1.472       .  S
C502        H504   1.082       .  S
N505        N506   1.320       .  A
N505        C509   1.340       .  A
N505       Cu513   2.053   1_554  S
N506        C507   1.351       .  A
N506       Cu512   2.091       .  S
C507        C508   1.390       .  A
C507        H510   1.082       .  S
C508        C509   1.380       .  A
C508       C1025   1.476       .  S
C509        H511   1.082       .  S
Cu512       N515   2.092       .  S
Cu513       N523   2.053       .  S
Cu514       N516   2.091       .  S
Cu514       N522   2.089       .  S
N515        N516   1.326   1_554  A
N515        C519   1.346       .  A
N516        C517   1.349       .  A
C517        C518   1.385       .  A
C517        H520   1.082       .  S
C518        C519   1.383   1_556  A
C518        C679   1.475       .  S
C519        H521   1.082       .  S
N522        N523   1.321       .  A
N522        C526   1.350       .  A
N523        C524   1.340       .  A
C524        C525   1.379       .  A
C524        H527   1.082       .  S
C525        C526   1.388       .  A
C525        C755   1.472       .  S
C526        H528   1.082       .  S
N529        N530   1.322       .  A
N529        C533   1.342       .  A
N529       Cu537   2.065   1_554  S
N530        C531   1.348       .  A
N530       Cu536   2.083       .  S
C531        C532   1.386       .  A
C531        H534   1.082       .  S
C532        C533   1.381       .  A
C532        C953   1.473       .  S
C533        H535   1.082       .  S
Cu536       N539   2.085       .  S
Cu537       N547   2.066       .  S
Cu538       N540   2.092       .  S
Cu538       N546   2.091       .  S
N539        N540   1.325   1_554  A
N539        C543   1.348       .  A
N540        C541   1.347       .  A
C541        C542   1.384   1_556  A
C541        H544   1.082       .  S
C542        C543   1.384       .  A
C542        C678   1.475       .  S
C543        H545   1.082       .  S
N546        N547   1.321       .  A
N546        C550   1.351       .  A
N547        C548   1.343       .  A
C548        C549   1.383       .  A
C548        H551   1.082       .  S
C549        C550   1.390       .  A
C549        C716   1.481       .  S
C550        H552   1.082       .  S
N553        N554   1.321       .  A
N553        C557   1.341       .  A
N553       Cu561   2.058       .  S
N554        C555   1.350       .  A
N554       Cu560   2.089       .  S
C555        C556   1.388       .  A
C555        H558   1.082       .  S
C556        C557   1.380       .  A
C556       C1004   1.475       .  S
C557        H559   1.082       .  S
Cu560       N563   2.092       .  S
Cu561       N571   2.057       .  S
Cu562       N564   2.099       .  S
Cu562       N570   2.098       .  S
N563        N564   1.326       .  A
N563        C567   1.348       .  A
N564        C565   1.348       .  A
C565        C566   1.386   1_545  A
C565        H568   1.082       .  S
C566        C567   1.384   1_565  A
C566        C649   1.479       .  S
C567        H569   1.082       .  S
N570        N571   1.321       .  A
N570        C574   1.352       .  A
N571        C572   1.341       .  A
C572        C573   1.380       .  A
C572        H575   1.082       .  S
C573        C574   1.391       .  A
C573       C1151   1.479       .  S
C574        H576   1.082       .  S
N577        N578   1.321       .  A
N577        C581   1.343       .  A
N577       Cu585   2.070       .  S
N578        C579   1.348       .  A
N578       Cu584   2.078       .  S
C579        C580   1.387       .  A
C579        H582   1.082       .  S
C580        C581   1.383       .  A
C580       C1061   1.475       .  S
C581        H583   1.082       .  S
Cu584       N587   2.080       .  S
Cu585       N595   2.069       .  S
Cu586       N588   2.094       .  S
Cu586       N594   2.093       .  S
N587        N588   1.325       .  A
N587        C591   1.347       .  A
N588        C589   1.347       .  A
C589        C590   1.385       .  A
C589        H592   1.082       .  S
C590        C591   1.382       .  A
C590        C663   1.474       .  S
C591        H593   1.082       .  S
N594        N595   1.322       .  A
N594        C598   1.351       .  A
N595        C596   1.342       .  A
C596        C597   1.382       .  A
C596        H599   1.082       .  S
C597        C598   1.389       .  A
C597       C1166   1.479       .  S
C598        H600   1.082       .  S
N601        N602   1.321       .  A
N601        C605   1.341       .  A
N601       Cu609   2.058       .  S
N602        C603   1.348       .  A
N602       Cu608   2.078       .  S
C603        C604   1.386       .  A
C603        H606   1.082       .  S
C604        C605   1.380       .  A
C604        C881   1.470       .  S
C605        H607   1.082       .  S
Cu608       N611   2.080       .  S
Cu609       N619   2.058       .  S
Cu610       N612   2.089       .  S
Cu610       N618   2.088       .  S
N611        N612   1.325       .  A
N611        C615   1.346       .  A
N612        C613   1.346       .  A
C613        C614   1.383       .  A
C613        H616   1.082       .  S
C614        C615   1.383       .  A
C614        C635   1.472   1_545  S
C615        H617   1.082       .  S
N618        N619   1.320       .  A
N618        C622   1.349       .  A
N619        C620   1.342       .  A
C620        C621   1.381       .  A
C620        H623   1.082       .  S
C621        C622   1.389       .  A
C621       C1133   1.476       .  S
C622        H624   1.082       .  S
O625       Cu633   2.017       .  S
O625        C635   1.278       .  A
O626       Cu633   2.015       .  S
O626        C636   1.278       .  A
O627       Cu633   2.013       .  S
O627        C637   1.278       .  A
O628       Cu633   2.021       .  S
O628        C638   1.279       .  A
O629       Cu634   2.019       .  S
O629        C638   1.279       .  A
O630       Cu634   2.014       .  S
O630        C637   1.278       .  A
O631       Cu634   2.015       .  S
O631        C636   1.278       .  A
O632       Cu634   2.012       .  S
O632        C635   1.278       .  A
Cu633      Cu634   2.374       .  S
O639       Cu647   2.021       .  S
O639        C649   1.279       .  A
O640       Cu647   2.016   1_556  S
O640        C650   1.278       .  A
O641       Cu647   2.007       .  S
O641        C651   1.277       .  A
O642       Cu647   2.009   1_556  S
O642        C652   1.278       .  A
O643       Cu648   2.016   1_556  S
O643        C652   1.278       .  A
O644       Cu648   2.015       .  S
O644        C651   1.278       .  A
O645       Cu648   2.026   1_556  S
O645        C650   1.279       .  A
O646       Cu648   2.025       .  S
O646        C649   1.279       .  A
Cu647      Cu648   2.374       .  S
O653       Cu661   2.013       .  S
O653        C663   1.277       .  A
O654       Cu661   2.021   1_556  S
O654        C664   1.278       .  A
O655       Cu661   2.020   1_556  S
O655        C665   1.279       .  A
O656       Cu661   2.013       .  S
O656        C666   1.278       .  A
O657       Cu662   2.015       .  S
O657        C666   1.278       .  A
O658       Cu662   2.019   1_556  S
O658        C665   1.279       .  A
O659       Cu662   2.026   1_556  S
O659        C664   1.280       .  A
O660       Cu662   2.021       .  S
O660        C663   1.279       .  A
Cu661      Cu662   2.373       .  S
O667       Cu675   2.019       .  S
O667        C677   1.278   1_556  A
O668       Cu675   2.018       .  S
O668        C678   1.278   1_556  A
O669       Cu675   2.019       .  S
O669        C679   1.278       .  A
O670       Cu675   2.011       .  S
O670        C680   1.278   1_556  A
O671       Cu676   2.018       .  S
O671        C680   1.278       .  A
O672       Cu676   2.016       .  S
O672        C679   1.279   1_554  A
O673       Cu676   2.019       .  S
O673        C678   1.278       .  A
O674       Cu676   2.016       .  S
O674        C677   1.279       .  A
Cu675      Cu676   2.374   1_556  S
O681       Cu689   2.024       .  S
O681        C691   1.279       .  A
O682       Cu689   2.017       .  S
O682        C692   1.279       .  A
O683       Cu689   2.021       .  S
O683        C693   1.278       .  A
O684       Cu689   2.017       .  S
O684        C694   1.278       .  A
O685       Cu690   2.027       .  S
O685        C694   1.280       .  A
O686       Cu690   2.030       .  S
O686        C693   1.281       .  A
O687       Cu690   2.013       .  S
O687        C692   1.277       .  A
O688       Cu690   2.015       .  S
O688        C691   1.278       .  A
Cu689      Cu690   2.373       .  S
O695       Cu703   2.017       .  S
O695        C705   1.278       .  A
O696       Cu703   2.015       .  S
O696        C706   1.278       .  A
O697       Cu703   2.027       .  S
O697        C707   1.280       .  A
O698       Cu703   2.022       .  S
O698        C708   1.279       .  A
O699       Cu704   2.014       .  S
O699        C708   1.278       .  A
O700       Cu704   2.020       .  S
O700        C707   1.278       .  A
O701       Cu704   2.012       .  S
O701        C706   1.278       .  A
O702       Cu704   2.018       .  S
O702        C705   1.279       .  A
Cu703      Cu704   2.374       .  S
C709        N715   1.348       .  A
C709        C714   1.384       .  A
C709        C710   1.407       .  A
C710        C711   1.407       .  A
C710        H721   1.082       .  S
C711        C720   1.381       .  A
C711        C712   1.384       .  A
C712        N718   1.345       .  A
C712        C713   1.404       .  A
C713        C714   1.404       .  A
C713        H722   1.082       .  S
C714        C717   1.378       .  A
N715        C716   1.357       .  A
N715        H725   1.044       .  S
C716        C717   1.397       .  A
C717        H723   1.082       .  S
N718        C719   1.357       .  A
N718        H726   1.044       .  S
C719        C720   1.397       .  A
C720        H724   1.082       .  S
C727        N733   1.343       .  A
C727        C732   1.384       .  A
C727        C728   1.402       .  A
C728        C729   1.402       .  A
C728        H739   1.082       .  S
C729        C738   1.376       .  A
C729        C730   1.384       .  A
C730        N736   1.347       .  A
C730        C731   1.407       .  A
C731        C732   1.407       .  A
C731        H740   1.082       .  S
C732        C735   1.381       .  A
N733        C734   1.355       .  A
N733        H743   1.045       .  S
C734        C735   1.398       .  A
C735        H741   1.082       .  S
N736        C737   1.357       .  A
N736        H744   1.044       .  S
C737        C738   1.395       .  A
C738        H742   1.082       .  S
C745        N751   1.342       .  A
C745        C750   1.385       .  A
C745        C746   1.400       .  A
C746        C747   1.401       .  A
C746        H757   1.082       .  S
C747        C756   1.373       .  A
C747        C748   1.385       .  A
C748        N754   1.345       .  A
C748        C749   1.403       .  A
C749        C750   1.403       .  A
C749        H758   1.082       .  S
C750        C753   1.375       .  A
N751        C752   1.354       .  A
N751        H761   1.045       .  S
C752        C753   1.394       .  A
C753        H759   1.082       .  S
N754        C755   1.355       .  A
N754        H762   1.044       .  S
C755        C756   1.395       .  A
C756        H760   1.082       .  S
C763        N769   1.347       .  A
C763        C768   1.384       .  A
C763        C764   1.405       .  A
C764        C765   1.405       .  A
C764        H775   1.082       .  S
C765        C774   1.379       .  A
C765        C766   1.385       .  A
C766        N772   1.343       .  A
C766        C767   1.402       .  A
C767        C768   1.402       .  A
C767        H776   1.082       .  S
C768        C771   1.376       .  A
N769        C770   1.357       .  A
N769        H779   1.044       .  S
C770        C771   1.396       .  A
C771        H777   1.082       .  S
N772        C773   1.355       .  A
N772        H780   1.045       .  S
C773        C774   1.395       .  A
C774        H778   1.082       .  S
C781        N787   1.345       .  A
C781        C786   1.384       .  A
C781        C782   1.405       .  A
C782        C783   1.405       .  A
C782        H793   1.082       .  S
C783        C792   1.381       .  A
C783        C784   1.384       .  A
C784        N790   1.342       .  A
C784        C785   1.402       .  A
C785        C786   1.400       .  A
C785        H794   1.082       .  S
C786        C789   1.375       .  A
N787        C788   1.356       .  A
N787        H797   1.045       .  S
C788        C789   1.394       .  A
C789        H795   1.082       .  S
N790        C791   1.355       .  A
N790        H798   1.044       .  S
C791        C792   1.396       .  A
C792        H796   1.082       .  S
C799        N805   1.342       .  A
C799        C804   1.385       .  A
C799        C800   1.401       .  A
C800        C801   1.401       .  A
C800        H811   1.082       .  S
C801        C810   1.375       .  A
C801        C802   1.385       .  A
C802        N808   1.345       .  A
C802        C803   1.404       .  A
C803        C804   1.403       .  A
C803        H812   1.082       .  S
C804        C807   1.377       .  A
N805        C806   1.354       .  A
N805        H815   1.045       .  S
C806        C807   1.395       .  A
C807        H813   1.082       .  S
N808        C809   1.356       .  A
N808        H816   1.044       .  S
C809        C810   1.395       .  A
C810        H814   1.082       .  S
C817        N823   1.343       .  A
C817        C822   1.385       .  A
C817        C818   1.405       .  A
C818        C819   1.404       .  A
C818        H829   1.082       .  S
C819        C828   1.381       .  A
C819        C820   1.384       .  A
C820        N826   1.339       .  A
C820        C821   1.400       .  A
C821        C822   1.398       .  A
C821        H830   1.082       .  S
C822        C825   1.375       .  A
N823        C824   1.355       .  A
N823        H833   1.045       .  S
C824        C825   1.392       .  A
C825        H831   1.082       .  S
N826        C827   1.355       .  A
N826        H834   1.044       .  S
C827        C828   1.396       .  A
C828        H832   1.082       .  S
C835        N841   1.340       .  A
C835        C840   1.384       .  A
C835        C836   1.402       .  A
C836        C837   1.399       .  A
C836        H847   1.082       .  S
C837        C846   1.376       .  A
C837        C838   1.385       .  A
C838        N844   1.342       .  A
C838        C839   1.404       .  A
C839        C840   1.403       .  A
C839        H848   1.082       .  S
C840        C843   1.380       .  A
N841        C842   1.355       .  A
N841        H851   1.044       .  S
C842        C843   1.395       .  A
C843        H849   1.082       .  S
N844        C845   1.355       .  A
N844        H852   1.045       .  S
C845        C846   1.394       .  A
C846        H850   1.082       .  S
C853        N859   1.342       .  A
C853        C858   1.385       .  A
C853        C854   1.401       .  A
C854        C855   1.401       .  A
C854        H865   1.082       .  S
C855        C864   1.375       .  A
C855        C856   1.384       .  A
C856        N862   1.346       .  A
C856        C857   1.405       .  A
C857        C858   1.405       .  A
C857        H866   1.082       .  S
C858        C861   1.378       .  A
N859        C860   1.354       .  A
N859        H869   1.045       .  S
C860        C861   1.396       .  A
C861        H867   1.082       .  S
N862        C863   1.356       .  A
N862        H870   1.044       .  S
C863        C864   1.395       .  A
C864        H868   1.082       .  S
C871        N877   1.341       .  A
C871        C876   1.385       .  A
C871        C872   1.401       .  A
C872        C873   1.401       .  A
C872        H883   1.082       .  S
C873        C882   1.374       .  A
C873        C874   1.385       .  A
C874        N880   1.344       .  A
C874        C875   1.403       .  A
C875        C876   1.402       .  A
C875        H884   1.082       .  S
C876        C879   1.376       .  A
N877        C878   1.355       .  A
N877        H887   1.045       .  S
C878        C879   1.394       .  A
C879        H885   1.082       .  S
N880        C881   1.355       .  A
N880        H888   1.044       .  S
C881        C882   1.395       .  A
C882        H886   1.082       .  S
C889        N895   1.343       .  A
C889        C894   1.384       .  A
C889        C890   1.405       .  A
C890        C891   1.403       .  A
C890        H901   1.082       .  S
C891        C900   1.380       .  A
C891        C892   1.384       .  A
C892        N898   1.345       .  A
C892        C893   1.407       .  A
C893        C894   1.406       .  A
C893        H902   1.082       .  S
C894        C897   1.385       .  A
N895        C896   1.357       .  A
N895        H905   1.044       .  S
C896        C897   1.397       .  A
C897        H903   1.082       .  S
N898        C899   1.357       .  A
N898        H906   1.045       .  S
C899        C900   1.396       .  A
C900        H904   1.082       .  S
C907        N913   1.347       .  A
C907        C912   1.384       .  A
C907        C908   1.406       .  A
C908        C909   1.406       .  A
C908        H919   1.082       .  S
C909        C918   1.379       .  A
C909        C910   1.385       .  A
C910        N916   1.342       .  A
C910        C911   1.400       .  A
C911        C912   1.400       .  A
C911        H920   1.082       .  S
C912        C915   1.373       .  A
N913        C914   1.357       .  A
N913        H923   1.044       .  S
C914        C915   1.395       .  A
C915        H921   1.082       .  S
N916        C917   1.354       .  A
N916        H924   1.045       .  S
C917        C918   1.397       .  A
C918        H922   1.082       .  S
C925        N931   1.343       .  A
C925        C930   1.384       .  A
C925        C926   1.405       .  A
C926        C927   1.404       .  A
C926        H937   1.082       .  S
C927        C936   1.379       .  A
C927        C928   1.385       .  A
C928        N934   1.343       .  A
C928        C929   1.403       .  A
C929        C930   1.402       .  A
C929        H938   1.082       .  S
C930        C933   1.380       .  A
N931        C932   1.358       .  A
N931        H941   1.044       .  S
C932        C933   1.395       .  A
C933        H939   1.082       .  S
N934        C935   1.354       .  A
N934        H942   1.045       .  S
C935        C936   1.396       .  A
C936        H940   1.082       .  S
C943        N949   1.341       .  A
C943        C948   1.385       .  A
C943        C944   1.401       .  A
C944        C945   1.401       .  A
C944        H955   1.082       .  S
C945        C954   1.375       .  A
C945        C946   1.384       .  A
C946        N952   1.345       .  A
C946        C947   1.404       .  A
C947        C948   1.403       .  A
C947        H956   1.082       .  S
C948        C951   1.378       .  A
N949        C950   1.355       .  A
N949        H959   1.045       .  S
C950        C951   1.395       .  A
C951        H957   1.082       .  S
N952        C953   1.356       .  A
N952        H960   1.044       .  S
C953        C954   1.395       .  A
C954        H958   1.082       .  S
C961        N967   1.345       .  A
C961        C966   1.384       .  A
C961        C962   1.404       .  A
C962        C963   1.404       .  A
C962        H973   1.082       .  S
C963        C972   1.378       .  A
C963        C964   1.384       .  A
C964        N970   1.343       .  A
C964        C965   1.402       .  A
C965        C966   1.402       .  A
C965        H974   1.082       .  S
C966        C969   1.376       .  A
N967        C968   1.356       .  A
N967        H977   1.044       .  S
C968        C969   1.396       .  A
C969        H975   1.082       .  S
N970        C971   1.355       .  A
N970        H978   1.045       .  S
C971        C972   1.396       .  A
C972        H976   1.082       .  S
C979        N985   1.341       .  A
C979        C984   1.384       .  A
C979        C980   1.402       .  A
C980        C981   1.400       .  A
C980        H991   1.082       .  S
C981        C990   1.377       .  A
C981        C982   1.384       .  A
C982        N988   1.344       .  A
C982        C983   1.406       .  A
C983        C984   1.405       .  A
C983        H992   1.082       .  S
C984        C987   1.383       .  A
N985        C986   1.356       .  A
N985        H995   1.044       .  S
C986        C987   1.396       .  A
C987        H993   1.082       .  S
N988        C989   1.356       .  A
N988        H996   1.045       .  S
C989        C990   1.394       .  A
C990        H994   1.082       .  S
C997       N1003   1.346       .  A
C997       C1002   1.384       .  A
C997        C998   1.405       .  A
C998        C999   1.404       .  A
C998       H1009   1.082       .  S
C999       C1008   1.378       .  A
C999       C1000   1.385       .  A
C1000      N1006   1.342       .  A
C1000      C1001   1.401       .  A
C1001      C1002   1.401       .  A
C1001      H1010   1.082       .  S
C1002      C1005   1.374       .  A
N1003      C1004   1.356       .  A
N1003      H1013   1.044       .  S
C1004      C1005   1.395       .  A
C1005      H1011   1.082       .  S
N1006      C1007   1.353       .  A
N1006      H1014   1.045       .  S
C1007      C1008   1.395       .  A
C1008      H1012   1.082       .  S
C1015      N1021   1.343       .  A
C1015      C1020   1.385       .  A
C1015      C1016   1.401       .  A
C1016      C1017   1.402       .  A
C1016      H1027   1.082       .  S
C1017      C1026   1.374       .  A
C1017      C1018   1.384       .  A
C1018      N1024   1.347       .  A
C1018      C1019   1.406       .  A
C1019      C1020   1.406       .  A
C1019      H1028   1.082       .  S
C1020      C1023   1.380       .  A
N1021      C1022   1.355       .  A
N1021      H1031   1.045       .  S
C1022      C1023   1.397       .  A
C1023      H1029   1.082       .  S
N1024      C1025   1.357       .  A
N1024      H1032   1.044       .  S
C1025      C1026   1.395       .  A
C1026      H1030   1.082       .  S
C1033      N1039   1.347       .  A
C1033      C1038   1.384       .  A
C1033      C1034   1.405       .  A
C1034      C1035   1.405       .  A
C1034      H1045   1.082       .  S
C1035      C1044   1.378       .  A
C1035      C1036   1.386       .  A
C1036      N1042   1.342       .  A
C1036      C1037   1.399       .  A
C1037      C1038   1.400       .  A
C1037      H1046   1.082       .  S
C1038      C1041   1.372       .  A
N1039      C1040   1.357       .  A
N1039      H1049   1.044       .  S
C1040      C1041   1.394       .  A
C1041      H1047   1.082       .  S
N1042      C1043   1.352       .  A
N1042      H1050   1.045       .  S
C1043      C1044   1.395       .  A
C1044      H1048   1.082       .  S
C1051      N1057   1.344       .  A
C1051      C1056   1.385       .  A
C1051      C1052   1.406       .  A
C1052      C1053   1.405       .  A
C1052      H1063   1.082       .  S
C1053      C1062   1.382       .  A
C1053      C1054   1.384       .  A
C1054      N1060   1.342       .  A
C1054      C1055   1.402       .  A
C1055      C1056   1.401       .  A
C1055      H1064   1.082       .  S
C1056      C1059   1.376       .  A
N1057      C1058   1.356       .  A
N1057      H1067   1.045       .  S
C1058      C1059   1.394       .  A
C1059      H1065   1.082       .  S
N1060      C1061   1.355       .  A
N1060      H1068   1.044       .  S
C1061      C1062   1.397       .  A
C1062      H1066   1.082       .  S
C1069      N1075   1.343       .  A
C1069      C1074   1.385       .  A
C1069      C1070   1.405       .  A
C1070      C1071   1.403       .  A
C1070      H1081   1.082       .  S
C1071      C1080   1.381       .  A
C1071      C1072   1.384       .  A
C1072      N1078   1.340       .  A
C1072      C1073   1.401       .  A
C1073      C1074   1.399       .  A
C1073      H1082   1.082       .  S
C1074      C1077   1.375       .  A
N1075      C1076   1.355       .  A
N1075      H1085   1.045       .  S
C1076      C1077   1.393       .  A
C1077      H1083   1.082       .  S
N1078      C1079   1.355       .  A
N1078      H1086   1.044       .  S
C1079      C1080   1.396       .  A
C1080      H1084   1.082       .  S
C1087      N1093   1.340       .  A
C1087      C1092   1.384       .  A
C1087      C1088   1.401       .  A
C1088      C1089   1.399       .  A
C1088      H1099   1.082       .  S
C1089      C1098   1.375       .  A
C1089      C1090   1.385       .  A
C1090      N1096   1.342       .  A
C1090      C1091   1.403       .  A
C1091      C1092   1.402       .  A
C1091      H1100   1.082       .  S
C1092      C1095   1.380       .  A
N1093      C1094   1.356       .  A
N1093      H1103   1.044       .  S
C1094      C1095   1.395       .  A
C1095      H1101   1.082       .  S
N1096      C1097   1.354       .  A
N1096      H1104   1.045       .  S
C1097      C1098   1.392       .  A
C1098      H1102   1.082       .  S
C1105      N1111   1.348       .  A
C1105      C1110   1.384       .  A
C1105      C1106   1.406       .  A
C1106      C1107   1.407       .  A
C1106      H1117   1.082       .  S
C1107      C1116   1.381       .  A
C1107      C1108   1.384       .  A
C1108      N1114   1.343       .  A
C1108      C1109   1.401       .  A
C1109      C1110   1.401       .  A
C1109      H1118   1.082       .  S
C1110      C1113   1.374       .  A
N1111      C1112   1.357       .  A
N1111      H1121   1.044       .  S
C1112      C1113   1.395       .  A
C1113      H1119   1.082       .  S
N1114      C1115   1.355       .  A
N1114      H1122   1.045       .  S
C1115      C1116   1.397       .  A
C1116      H1120   1.082       .  S
C1123      N1129   1.344       .  A
C1123      C1128   1.385       .  A
C1123      C1124   1.405       .  A
C1124      C1125   1.404       .  A
C1124      H1135   1.082       .  S
C1125      C1134   1.382       .  A
C1125      C1126   1.384       .  A
C1126      N1132   1.342       .  A
C1126      C1127   1.403       .  A
C1127      C1128   1.401       .  A
C1127      H1136   1.082       .  S
C1128      C1131   1.377       .  A
N1129      C1130   1.355       .  A
N1129      H1139   1.045       .  S
C1130      C1131   1.393       .  A
C1131      H1137   1.082       .  S
N1132      C1133   1.356       .  A
N1132      H1140   1.044       .  S
C1133      C1134   1.396       .  A
C1134      H1138   1.082       .  S
C1141      N1147   1.344       .  A
C1141      C1146   1.384       .  A
C1141      C1142   1.407       .  A
C1142      C1143   1.405       .  A
C1142      H1153   1.082       .  S
C1143      C1152   1.384       .  A
C1143      C1144   1.384       .  A
C1144      N1150   1.342       .  A
C1144      C1145   1.404       .  A
C1145      C1146   1.402       .  A
C1145      H1154   1.082       .  S
C1146      C1149   1.379       .  A
N1147      C1148   1.357       .  A
N1147      H1157   1.045       .  S
C1148      C1149   1.396       .  A
C1149      H1155   1.082       .  S
N1150      C1151   1.357       .  A
N1150      H1158   1.044       .  S
C1151      C1152   1.397       .  A
C1152      H1156   1.082       .  S
C1159      N1165   1.348       .  A
C1159      C1164   1.384       .  A
C1159      C1160   1.408       .  A
C1160      C1161   1.407       .  A
C1160      H1171   1.082       .  S
C1161      C1170   1.382       .  A
C1161      C1162   1.384       .  A
C1162      N1168   1.343       .  A
C1162      C1163   1.402       .  A
C1163      C1164   1.402       .  A
C1163      H1172   1.082       .  S
C1164      C1167   1.375       .  A
N1165      C1166   1.358       .  A
N1165      H1175   1.044       .  S
C1166      C1167   1.395       .  A
C1167      H1173   1.082       .  S
N1168      C1169   1.355       .  A
N1168      H1176   1.045       .  S
C1169      C1170   1.397       .  A
C1170      H1174   1.082       .  S
C1177      N1183   1.347       .  A
C1177      C1182   1.384       .  A
C1177      C1178   1.407       .  A
C1178      C1179   1.407       .  A
C1178      H1189   1.082       .  S
C1179      C1188   1.382       .  A
C1179      C1180   1.385       .  A
C1180      N1186   1.341       .  A
C1180      C1181   1.400       .  A
C1181      C1182   1.400       .  A
C1181      H1190   1.082       .  S
C1182      C1185   1.373       .  A
N1183      C1184   1.357       .  A
N1183      H1193   1.044       .  S
C1184      C1185   1.394       .  A
C1185      H1191   1.082       .  S
N1186      C1187   1.354       .  A
N1186      H1194   1.045       .  S
C1187      C1188   1.398       .  A
C1188      H1192   1.082       .  S
C1195      N1201   1.343       .  A
C1195      C1200   1.385       .  A
C1195      C1196   1.403       .  A
C1196      C1197   1.403       .  A
C1196      H1207   1.082       .  S
C1197      C1206   1.377       .  A
C1197      C1198   1.384       .  A
C1198      N1204   1.345       .  A
C1198      C1199   1.404       .  A
C1199      C1200   1.403       .  A
C1199      H1208   1.082       .  S
C1200      C1203   1.379       .  A
N1201      C1202   1.355       .  A
N1201      H1211   1.045       .  S
C1202      C1203   1.395       .  A
C1203      H1209   1.082       .  S
N1204      C1205   1.356       .  A
N1204      H1212   1.044       .  S
C1205      C1206   1.396       .  A
C1206      H1210   1.082       .  S
C1213      N1219   1.346       .  A
C1213      C1218   1.384       .  A
C1213      C1214   1.405       .  A
C1214      C1215   1.404       .  A
C1214      H1225   1.082       .  S
C1215      C1224   1.379       .  A
C1215      C1216   1.385       .  A
C1216      N1222   1.342       .  A
C1216      C1217   1.401       .  A
C1217      C1218   1.401       .  A
C1217      H1226   1.082       .  S
C1218      C1221   1.374       .  A
N1219      C1220   1.356       .  A
N1219      H1229   1.044       .  S
C1220      C1221   1.395       .  A
C1221      H1227   1.082       .  S
N1222      C1223   1.354       .  A
N1222      H1230   1.044       .  S
C1223      C1224   1.395       .  A
C1224      H1228   1.082       .  S
C1231      N1237   1.344       .  A
C1231      C1236   1.385       .  A
C1231      C1232   1.406       .  A
C1232      C1233   1.405       .  A
C1232      H1243   1.082       .  S
C1233      C1242   1.383       .  A
C1233      C1234   1.384       .  A
C1234      N1240   1.341       .  A
C1234      C1235   1.402       .  A
C1235      C1236   1.400       .  A
C1235      H1244   1.082       .  S
C1236      C1239   1.377       .  A
N1237      C1238   1.356       .  A
N1237      H1247   1.044       .  S
C1238      C1239   1.393       .  A
C1239      H1245   1.082       .  S
N1240      C1241   1.356       .  A
N1240      H1248   1.044       .  S
C1241      C1242   1.397       .  A
C1242      H1246   1.082       .  S
C1249      N1255   1.342       .  A
C1249      C1254   1.384       .  A
C1249      C1250   1.403       .  A
C1250      C1251   1.401       .  A
C1250      H1261   1.082       .  S
C1251      C1260   1.377       .  A
C1251      C1252   1.384       .  A
C1252      N1258   1.346       .  A
C1252      C1253   1.407       .  A
C1253      C1254   1.406       .  A
C1253      H1262   1.082       .  S
C1254      C1257   1.384       .  A
N1255      C1256   1.356       .  A
N1255      H1265   1.044       .  S
C1256      C1257   1.398       .  A
C1257      H1263   1.082       .  S
N1258      C1259   1.357       .  A
N1258      H1266   1.045       .  S
C1259      C1260   1.395       .  A
C1260      H1264   1.082       .  S
C1267      N1273   1.345       .  A
C1267      C1272   1.384       .  A
C1267      C1268   1.405       .  A
C1268      C1269   1.404       .  A
C1268      H1279   1.082       .  S
C1269      C1278   1.379       .  A
C1269      C1270   1.385       .  A
C1270      N1276   1.340       .  A
C1270      C1271   1.400       .  A
C1271      C1272   1.400       .  A
C1271      H1280   1.082       .  S
C1272      C1275   1.374       .  A
N1273      C1274   1.357       .  A
N1273      H1283   1.044       .  S
C1274      C1275   1.394       .  A
C1275      H1281   1.082       .  S
N1276      C1277   1.353       .  A
N1276      H1284   1.045       .  S
C1277      C1278   1.395       .  A
C1278      H1282   1.082       .  S
C1285      N1291   1.343       .  A
C1285      C1290   1.385       .  A
C1285      C1286   1.402       .  A
C1286      C1287   1.402       .  A
C1286      H1297   1.082       .  S
C1287      C1296   1.375       .  A
C1287      C1288   1.384       .  A
C1288      N1294   1.347       .  A
C1288      C1289   1.405       .  A
C1289      C1290   1.405       .  A
C1289      H1298   1.082       .  S
C1290      C1293   1.379       .  A
N1291      C1292   1.355       .  A
N1291      H1301   1.045       .  S
C1292      C1293   1.396       .  A
C1293      H1299   1.082       .  S
N1294      C1295   1.356       .  A
N1294      H1302   1.044       .  S
C1295      C1296   1.396       .  A
C1296      H1300   1.082       .  S
C1303      N1309   1.344       .  A
C1303      C1308   1.384       .  A
C1303      C1304   1.404       .  A
C1304      C1305   1.404       .  A
C1304      H1315   1.082       .  S
C1305      C1314   1.378       .  A
C1305      C1306   1.384       .  A
C1306      N1312   1.346       .  A
C1306      C1307   1.404       .  A
C1307      C1308   1.404       .  A
C1307      H1316   1.082       .  S
C1308      C1311   1.379       .  A
N1309      C1310   1.356       .  A
N1309      H1319   1.045       .  S
C1310      C1311   1.395       .  A
C1311      H1317   1.082       .  S
N1312      C1313   1.356       .  A
N1312      H1320   1.044       .  S
C1313      C1314   1.397       .  A
C1314      H1318   1.082       .  S
C1321      N1327   1.347       .  A
C1321      C1326   1.384       .  A
C1321      C1322   1.407       .  A
C1322      C1323   1.406       .  A
C1322      H1333   1.082       .  S
C1323      C1332   1.382       .  A
C1323      C1324   1.384       .  A
C1324      N1330   1.343       .  A
C1324      C1325   1.402       .  A
C1325      C1326   1.402       .  A
C1325      H1334   1.082       .  S
C1326      C1329   1.376       .  A
N1327      C1328   1.357       .  A
N1327      H1337   1.044       .  S
C1328      C1329   1.396       .  A
C1329      H1335   1.082       .  S
N1330      C1331   1.355       .  A
N1330      H1338   1.045       .  S
C1331      C1332   1.397       .  A
C1332      H1336   1.082       .  S
C1339      N1345   1.343       .  A
C1339      C1344   1.385       .  A
C1339      C1340   1.405       .  A
C1340      C1341   1.404       .  A
C1340      H1351   1.082       .  S
C1341      C1350   1.381       .  A
C1341      C1342   1.384       .  A
C1342      N1348   1.341       .  A
C1342      C1343   1.402       .  A
C1343      C1344   1.400       .  A
C1343      H1352   1.082       .  S
C1344      C1347   1.376       .  A
N1345      C1346   1.355       .  A
N1345      H1355   1.045       .  S
C1346      C1347   1.393       .  A
C1347      H1353   1.082       .  S
N1348      C1349   1.356       .  A
N1348      H1356   1.044       .  S
C1349      C1350   1.396       .  A
C1350      H1354   1.082       .  S
C1357      N1363   1.350       .  A
C1357      C1362   1.384       .  A
C1357      C1358   1.410       .  A
C1358      C1359   1.410       .  A
C1358      H1369   1.082       .  S
C1359      C1368   1.384       .  A
C1359      C1360   1.385       .  A
C1360      N1366   1.342       .  A
C1360      C1361   1.400       .  A
C1361      C1362   1.400       .  A
C1361      H1370   1.082       .  S
C1362      C1365   1.373       .  A
N1363      C1364   1.359       .  A
N1363      H1373   1.044       .  S
C1364      C1365   1.395       .  A
C1365      H1371   1.082       .  S
N1366      C1367   1.353       .  A
N1366      H1374   1.045       .  S
C1367      C1368   1.398       .  A
C1368      H1372   1.082       .  S
C1375      N1381   1.346       .  A
C1375      C1380   1.384       .  A
C1375      C1376   1.405       .  A
C1376      C1377   1.404       .  A
C1376      H1387   1.082       .  S
C1377      C1386   1.378       .  A
C1377      C1378   1.384       .  A
C1378      N1384   1.345       .  A
C1378      C1379   1.404       .  A
C1379      C1380   1.405       .  A
C1379      H1388   1.082       .  S
C1380      C1383   1.378       .  A
N1381      C1382   1.356       .  A
N1381      H1391   1.044       .  S
C1382      C1383   1.398       .  A
C1383      H1389   1.082       .  S
N1384      C1385   1.356       .  A
N1384      H1392   1.045       .  S
C1385      C1386   1.395       .  A
C1386      H1390   1.082       .  S
C1393      N1399   1.341       .  A
C1393      C1398   1.385       .  A
C1393      C1394   1.399       .  A
C1394      C1395   1.400       .  A
C1394      H1405   1.082       .  S
C1395      C1404   1.371       .  A
C1395      C1396   1.385       .  A
C1396      N1402   1.345       .  A
C1396      C1397   1.403       .  A
C1397      C1398   1.403       .  A
C1397      H1406   1.082       .  S
C1398      C1401   1.376       .  A
N1399      C1400   1.353       .  A
N1399      H1409   1.044       .  S
C1400      C1401   1.394       .  A
C1401      H1407   1.082       .  S
N1402      C1403   1.356       .  A
N1402      H1410   1.045       .  S
C1403      C1404   1.394       .  A
C1404      H1408   1.082       .  S
C1411      N1417   1.346       .  A
C1411      C1416   1.384       .  A
C1411      C1412   1.406       .  A
C1412      C1413   1.405       .  A
C1412      H1423   1.082       .  S
C1413      C1422   1.380       .  A
C1413      C1414   1.385       .  A
C1414      N1420   1.341       .  A
C1414      C1415   1.400       .  A
C1415      C1416   1.400       .  A
C1415      H1424   1.082       .  S
C1416      C1419   1.374       .  A
N1417      C1418   1.357       .  A
N1417      H1427   1.044       .  S
C1418      C1419   1.395       .  A
C1419      H1425   1.082       .  S
N1420      C1421   1.353       .  A
N1420      H1428   1.045       .  S
C1421      C1422   1.396       .  A
C1422      H1426   1.082       .  S
C1429      N1435   1.343       .  A
C1429      C1434   1.384       .  A
C1429      C1430   1.404       .  A
C1430      C1431   1.402       .  A
C1430      H1441   1.082       .  S
C1431      C1440   1.378       .  A
C1431      C1432   1.385       .  A
C1432      N1438   1.343       .  A
C1432      C1433   1.403       .  A
C1433      C1434   1.403       .  A
C1433      H1442   1.082       .  S
C1434      C1437   1.379       .  A
N1435      C1436   1.356       .  A
N1435      H1445   1.044       .  S
C1436      C1437   1.396       .  A
C1437      H1443   1.082       .  S
N1438      C1439   1.354       .  A
N1438      H1446   1.045       .  S
C1439      C1440   1.394       .  A
C1440      H1444   1.082       .  S
C1447      N1453   1.346       .  A
C1447      C1452   1.384       .  A
C1447      C1448   1.404       .  A
C1448      C1449   1.404       .  A
C1448      H1459   1.082       .  S
C1449      C1458   1.377       .  A
C1449      C1450   1.385       .  A
C1450      N1456   1.343       .  A
C1450      C1451   1.401       .  A
C1451      C1452   1.401       .  A
C1451      H1460   1.082       .  S
C1452      C1455   1.374       .  A
N1453      C1454   1.356       .  A
N1453      H1463   1.044       .  S
C1454      C1455   1.395       .  A
C1455      H1461   1.082       .  S
N1456      C1457   1.355       .  A
N1456      H1464   1.045       .  S
C1457      C1458   1.395       .  A
C1458      H1462   1.082       .  S
C1465      N1471   1.340       .  A
C1465      C1470   1.384       .  A
C1465      C1466   1.401       .  A
C1466      C1467   1.399       .  A
C1466      H1477   1.082       .  S
C1467      C1476   1.375       .  A
C1467      C1468   1.384       .  A
C1468      N1474   1.343       .  A
C1468      C1469   1.405       .  A
C1469      C1470   1.404       .  A
C1469      H1478   1.082       .  S
C1470      C1473   1.382       .  A
N1471      C1472   1.355       .  A
N1471      H1481   1.044       .  S
C1472      C1473   1.397       .  A
C1473      H1479   1.082       .  S
N1474      C1475   1.356       .  A
N1474      H1482   1.045       .  S
C1475      C1476   1.394       .  A
C1476      H1480   1.082       .  S
C1483      N1489   1.342       .  A
C1483      C1488   1.384       .  A
C1483      C1484   1.404       .  A
C1484      C1485   1.402       .  A
C1484      H1495   1.082       .  S
C1485      C1494   1.379       .  A
C1485      C1486   1.384       .  A
C1486      N1492   1.346       .  A
C1486      C1487   1.408       .  A
C1487      C1488   1.406       .  A
C1487      H1496   1.082       .  S
C1488      C1491   1.385       .  A
N1489      C1490   1.356       .  A
N1489      H1499   1.044       .  S
C1490      C1491   1.398       .  A
C1491      H1497   1.082       .  S
N1492      C1493   1.357       .  A
N1492      H1500   1.044       .  S
C1493      C1494   1.396       .  A
C1494      H1498   1.082       .  S
C1501      N1507   1.347       .  A
C1501      C1506   1.384       .  A
C1501      C1502   1.406       .  A
C1502      C1503   1.405       .  A
C1502      H1513   1.082       .  S
C1503      C1512   1.380       .  A
C1503      C1504   1.385       .  A
C1504      N1510   1.342       .  A
C1504      C1505   1.401       .  A
C1505      C1506   1.401       .  A
C1505      H1514   1.082       .  S
C1506      C1509   1.374       .  A
N1507      C1508   1.357       .  A
N1507      H1517   1.044       .  S
C1508      C1509   1.395       .  A
C1509      H1515   1.082       .  S
N1510      C1511   1.355       .  A
N1510      H1518   1.045       .  S
C1511      C1512   1.396       .  A
C1512      H1516   1.082       .  S
C1519      N1525   1.341       .  A
C1519      C1524   1.384       .  A
C1519      C1520   1.403       .  A
C1520      C1521   1.400       .  A
C1520      H1531   1.082       .  S
C1521      C1530   1.378       .  A
C1521      C1522   1.384       .  A
C1522      N1528   1.345       .  A
C1522      C1523   1.407       .  A
C1523      C1524   1.406       .  A
C1523      H1532   1.082       .  S
C1524      C1527   1.385       .  A
N1525      C1526   1.356       .  A
N1525      H1535   1.044       .  S
C1526      C1527   1.398       .  A
C1527      H1533   1.082       .  S
N1528      C1529   1.357       .  A
N1528      H1536   1.045       .  S
C1529      C1530   1.394       .  A
C1530      H1534   1.082       .  S
C1537      N1543   1.344       .  A
C1537      C1542   1.384       .  A
C1537      C1538   1.406       .  A
C1538      C1539   1.405       .  A
C1538      H1549   1.082       .  S
C1539      C1548   1.382       .  A
C1539      C1540   1.384       .  A
C1540      N1546   1.341       .  A
C1540      C1541   1.402       .  A
C1541      C1542   1.400       .  A
C1541      H1550   1.082       .  S
C1542      C1545   1.376       .  A
N1543      C1544   1.357       .  A
N1543      H1553   1.045       .  S
C1544      C1545   1.394       .  A
C1545      H1551   1.082       .  S
N1546      C1547   1.355       .  A
N1546      H1554   1.044       .  S
C1547      C1548   1.397       .  A
C1548      H1552   1.082       .  S
C1555      N1561   1.345       .  A
C1555      C1560   1.385       .  A
C1555      C1556   1.404       .  A
C1556      C1557   1.403       .  A
C1556      H1567   1.082       .  S
C1557      C1566   1.376       .  A
C1557      C1558   1.385       .  A
C1558      N1564   1.341       .  A
C1558      C1559   1.398       .  A
C1559      C1560   1.399       .  A
C1559      H1568   1.082       .  S
C1560      C1563   1.371       .  A
N1561      C1562   1.356       .  A
N1561      H1571   1.044       .  S
C1562      C1563   1.393       .  A
C1563      H1569   1.082       .  S
N1564      C1565   1.353       .  A
N1564      H1572   1.045       .  S
C1565      C1566   1.396       .  A
C1566      H1570   1.082       .  S
