geometry optimzed in LAMMPS
_audit_creation_date              2020-11-30 
_audit_creation_method            'lammps2cif' 
_symmetry_space_group_name_H-M    'P1' 
_symmetry_Int_Tables_number       1 
_symmetry_cell_setting            triclinic 
loop_ 
_symmetry_equiv_pos_as_xyz 
  x,y,z 
_cell_length_a                    31.81571460745838 
_cell_length_b                    31.728258082368338 
_cell_length_c                    51.85698042319085 
_cell_angle_alpha                 90.89984601330718 
_cell_angle_beta                  89.89131674918445 
_cell_angle_gamma                 90.56136290463607 
loop_ 
_atom_site_label 
_atom_site_type_symbol 
_atom_site_fract_x 
_atom_site_fract_y 
_atom_site_fract_z 
_atom_site_charge 
N1          N  0.19505039  0.18691274  0.16651543    -0.07580
N2          N  0.16211922  0.18702190  0.18171347    -0.59700
N3          N  0.27588058  0.23180202  0.13573146    -0.07260
N4          N  0.29535070  0.26874769  0.13627126    -0.61830
N5          N  0.23943805  0.23470161  0.12409542    -0.06860
N6          N  0.23341345  0.27346188  0.11632606    -0.59670
N7          N  0.23013608  0.18344963  0.17953913    -0.06530
N8          N  0.22123630  0.18079914  0.20446370    -0.62180
C9          C  0.17844219  0.18290048  0.20529369     0.94600
C10         C  0.26848120  0.29432887  0.12396885     0.94380
N11         N  0.35404952  0.12788834  0.12196120    -0.07760
N12         N  0.39368914  0.12007768  0.11687464    -0.60280
N13         N  0.30556231  0.12083030  0.17948349    -0.05880
N14         N  0.31941219  0.12302016  0.20326834    -0.61530
N15         N  0.31610974  0.08505986  0.16821688    -0.07790
N16         N  0.33873703  0.06251099  0.18445181    -0.60540
N17         N  0.35046356  0.16323445  0.13559642    -0.05530
N18         N  0.38849861  0.17923287  0.14025982    -0.61620
Mn19       Mn  0.29084736  0.17580431  0.15787993     1.18440
C20         C  0.41508955  0.15220444  0.12803166     0.96680
C21         C  0.33946788  0.08649778  0.20643744     0.97340
N22         N  0.19075844  0.18041398  0.08468091    -0.07810
N23         N  0.18959617  0.21310105  0.06962097    -0.64120
N24         N  0.15098393  0.09734325  0.11515873    -0.06620
N25         N  0.11483307  0.07650541  0.11361581    -0.64800
N26         N  0.14557970  0.13383096  0.12696760    -0.07320
N27         N  0.10607094  0.13841650  0.13386138    -0.64390
N28         N  0.19745036  0.14538328  0.07158893    -0.06220
N29         N  0.20156830  0.15416605  0.04680660    -0.65080
Mn30       Mn  0.19226361  0.18439692  0.12557617     1.10660
C31         C  0.19619459  0.19668965  0.04601326     0.97900
C32         C  0.08732939  0.10232005  0.12581173     0.97980
N33         N  0.26020245  0.02903631  0.12957715    -0.07330
N34         N  0.27084013  0.99130517  0.13666514    -0.62700
N35         N  0.26516953  0.07472290  0.07113050    -0.06650
N36         N  0.26310600  0.05759616  0.04796808    -0.59430
N37         N  0.30118555  0.06639718  0.08233404    -0.07960
N38         N  0.32358595  0.04151961  0.06672363    -0.62270
N39         N  0.22587014  0.02775209  0.11534750    -0.06940
N40         N  0.21412156  0.98767860  0.11170396    -0.59450
Mn41       Mn  0.30811339  0.07701714  0.12537875     1.20190
Mn42       Mn  0.20888387  0.08577101  0.09299067     1.10090
Cl43       Cl  0.25036662  0.13056047  0.12536623    -0.87420
C44         C  0.24256667  0.96534941  0.12550504     0.94910
C45         C  0.29960864  0.03742146  0.04505896     0.94710
N46         N  0.27183822  0.53498005  0.11327234    -0.07580
N47         N  0.27799666  0.49616841  0.10479399    -0.59700
N48         N  0.20100348  0.59941147  0.13791394    -0.07260
N49         N  0.16251739  0.60055140  0.14746267    -0.61830
N50         N  0.19997164  0.59887750  0.11249349    -0.06860
N51         N  0.16065661  0.59888415  0.10435861    -0.59670
N52         N  0.27380977  0.53673214  0.13862726    -0.06530
N53         N  0.28044955  0.49889271  0.14790647    -0.62180
C54         C  0.28396841  0.47425810  0.12652118     0.94600
C55         C  0.13764581  0.60000697  0.12636542     0.94380
N56         N  0.27375948  0.68610722  0.17994973    -0.07760
N57         N  0.26363902  0.71292921  0.19882740    -0.60280
N58         N  0.32069942  0.59533606  0.18202284    -0.05880
N59         N  0.33207018  0.57523927  0.20318893    -0.61530
N60         N  0.34744034  0.62634554  0.17787727    -0.07790
N61         N  0.37782409  0.62703648  0.19468738    -0.60540
N62         N  0.24679376  0.65440548  0.17950750    -0.05530
N63         N  0.21760113  0.65936429  0.19721192    -0.61620
Mn64       Mn  0.26014611  0.59523431  0.15993470     1.18440
C65         C  0.22775918  0.69617135  0.20886532     0.96680
C66         C  0.36860075  0.59510483  0.21018398     0.97340
N67         N  0.24973317  0.64659012  0.06451114    -0.07810
N68         N  0.23817544  0.65024717  0.03986958    -0.64120
N69         N  0.34255472  0.61181956  0.06530943    -0.06620
N70         N  0.36582992  0.60278167  0.04451520    -0.64800
N71         N  0.31538351  0.58094933  0.06880372    -0.07320
N72         N  0.32013654  0.55057256  0.05166466    -0.64390
N73         N  0.27264347  0.67964741  0.07092381    -0.06220
N74         N  0.27255629  0.70764048  0.05301342    -0.65080
Mn75       Mn  0.25794084  0.58987786  0.08957358     1.10660
C76         C  0.25241663  0.68952952  0.03325701     0.97900
C77         C  0.35195778  0.56361596  0.03673198     0.97980
N78         N  0.39186206  0.67209930  0.13449814    -0.07330
N79         N  0.43017955  0.66666967  0.14355032    -0.62700
N80         N  0.31864055  0.73283185  0.10868427    -0.06650
N81         N  0.30401108  0.76784242  0.09867711    -0.59430
N82         N  0.31746849  0.73524647  0.13393885    -0.07960
N83         N  0.30269384  0.77192905  0.14180516    -0.62270
N84         N  0.39170258  0.66792268  0.10923969    -0.06940
N85         N  0.42990791  0.66044593  0.10043405    -0.59450
Mn86       Mn  0.33303326  0.68105045  0.15676180     1.20190
Mn87       Mn  0.33267143  0.67308964  0.08822565     1.10090
Cl88       Cl  0.29608201  0.63455499  0.12368415    -0.87420
C89         C  0.45344094  0.65971701  0.12209399     0.94910
C90         C  0.29409084  0.79169781  0.11958875     0.94710
N91         N  0.84980074  0.12417055  0.13788800    -0.07580
N92         N  0.88782036  0.11346988  0.14526833    -0.59700
N93         N  0.79067331  0.20071258  0.11500719    -0.07260
N94         N  0.79279829  0.23901995  0.10521773    -0.61830
N95         N  0.79293627  0.20279974  0.14043996    -0.06860
N96         N  0.79786079  0.24266744  0.14814872    -0.59670
N97         N  0.84662534  0.12162106  0.11258748    -0.06530
N98         N  0.88280821  0.11021099  0.10225667    -0.62180
C99         C  0.90785894  0.10444726  0.12293300     0.94600
C100        C  0.79728161  0.26505101  0.12598733     0.94380
N101        N  0.69664277  0.13217518  0.07544247    -0.07760
N102        N  0.67012382  0.14467776  0.05723940    -0.60280
N103        N  0.78194305  0.07812386  0.07028687    -0.05880
N104        N  0.79453468  0.06721694  0.04653819    -0.61530
N105        N  0.75086560  0.05293770  0.07685864    -0.07790
N106        N  0.74364116  0.02415165  0.05924715    -0.60540
N107        N  0.73027529  0.15664502  0.07515035    -0.05530
N108        N  0.72726321  0.18595982  0.05769821    -0.61620
Mn109      Mn  0.78854182  0.13948154  0.09295733     1.18440
C110        C  0.68954947  0.17911289  0.04678766     0.96680
C111        C  0.77017726  0.03270277  0.04021964     0.97340
N112        N  0.74404009  0.15585389  0.19103380    -0.07810
N113        N  0.74789057  0.16464848  0.21616259    -0.64120
N114        N  0.77124018  0.06058581  0.18888237    -0.06620
N115        N  0.78022364  0.03670827  0.20912706    -0.64800
N116        N  0.80347898  0.08562286  0.18426899    -0.07320
N117        N  0.83452322  0.07884316  0.20023362    -0.64390
N118        N  0.70839859  0.13494691  0.18753144    -0.06220
N119        N  0.68608386  0.13444952  0.20874551    -0.65080
Mn120      Mn  0.79770969  0.14349417  0.16339492     1.10660
C121        C  0.71096249  0.15147221  0.22688699     0.97900
C122        C  0.82049764  0.04816013  0.21568507     0.97980
N123        N  0.70514967  0.01258975  0.12168605    -0.07330
N124        N  0.70940858  0.97348865  0.11263190    -0.62700
N125        N  0.64956381  0.09097599  0.14891088    -0.06650
N126        N  0.61415153  0.10446830  0.15949773    -0.59430
N127        N  0.64686790  0.09228457  0.12366935    -0.07960
N128        N  0.60996317  0.10647549  0.11644759    -0.62270
N129        N  0.71052552  0.01341245  0.14683558    -0.06940
N130        N  0.71796045  0.97507218  0.15540723    -0.59450
Mn131      Mn  0.69881169  0.07247232  0.09940992     1.20190
Mn132      Mn  0.70956582  0.07406704  0.16817042     1.10090
Cl133      Cl  0.74870785  0.10785567  0.13099427    -0.87420
C134        C  0.71700864  0.95031636  0.13388385     0.94910
C135        C  0.59000174  0.11426948  0.13896170     0.94710
N136        N  0.81231730  0.66568163  0.07465971    -0.07580
N137        N  0.81637337  0.69795459  0.05929231    -0.59700
N138        N  0.78394901  0.56457342  0.07057434    -0.07260
N139        N  0.78090996  0.53313460  0.05422421    -0.61830
N140        N  0.75214006  0.59047055  0.06873396    -0.06860
N141        N  0.72691698  0.57707165  0.04981553    -0.59670
N142        N  0.84412922  0.63963793  0.07222509    -0.06530
N143        N  0.87002509  0.65407306  0.05400824    -0.62180
C144        C  0.85255285  0.69131122  0.04663942     0.94600
C145        C  0.74545072  0.54068313  0.04152494     0.94380
N146        N  0.82711451  0.51020929  0.13626560    -0.07760
N147        N  0.82205442  0.47076491  0.14364084    -0.60280
N148        N  0.89448900  0.58707120  0.11608948    -0.05880
N149        N  0.93349367  0.59321074  0.10835897    -0.61530
N150        N  0.89273911  0.58290188  0.14126397    -0.07790
N151        N  0.93092012  0.58684529  0.15124092    -0.60540
N152        N  0.83031838  0.51232485  0.11103128    -0.05530
N153        N  0.82648817  0.47379507  0.10069707    -0.61620
Mn154      Mn  0.83930931  0.57591952  0.09212642     1.18440
C155        C  0.82143132  0.44813206  0.12135438     0.96680
C156        C  0.95592229  0.59360175  0.13042940     0.97340
N157        N  0.69454001  0.63444113  0.11262458    -0.07810
N158        N  0.65647993  0.63308508  0.10256560    -0.64120
N159        N  0.75660958  0.70599231  0.14334495    -0.06620
N160        N  0.75300779  0.74445559  0.15348821    -0.64800
N161        N  0.75749248  0.70782953  0.11794409    -0.07320
N162        N  0.75540532  0.74749348  0.11048880    -0.64390
N163        N  0.69254892  0.63317314  0.13792529    -0.06220
N164        N  0.65304295  0.62994826  0.14556564    -0.65080
Mn165      Mn  0.75349197  0.64971883  0.09311896     1.10660
C166        C  0.63101633  0.62931850  0.12329171     0.97900
C167        C  0.75309984  0.77015520  0.13278748     0.97980
N168        N  0.83678132  0.62314931  0.18424449    -0.07330
N169        N  0.86137124  0.62258519  0.20441100    -0.62700
N170        N  0.73965822  0.58196795  0.17890046    -0.06650
N171        N  0.70767417  0.57171969  0.19367108    -0.59430
N172        N  0.76974527  0.55388339  0.18017656    -0.07960
N173        N  0.75870460  0.52441018  0.19689929    -0.62270
N174        N  0.80551936  0.64965801  0.18775824    -0.06940
N175        N  0.80784875  0.66592823  0.21153435    -0.59450
Mn176      Mn  0.83192323  0.56702887  0.16065882     1.20190
Mn177      Mn  0.74863080  0.64365035  0.16230201     1.10090
Cl178      Cl  0.79358588  0.60940855  0.12708590    -0.87420
C179        C  0.84354728  0.64914552  0.22130085     0.94910
C180        C  0.71922003  0.53550458  0.20456126     0.94710
N181        N  0.20510106  0.32050437  0.91981657    -0.07580
N182        N  0.20574571  0.28923648  0.93577295    -0.59700
N183        N  0.14761826  0.39105774  0.89087346    -0.07260
N184        N  0.10885610  0.40577048  0.89282181    -0.61830
N185        N  0.14654308  0.35324328  0.88001207    -0.06860
N186        N  0.10810734  0.34177054  0.87417604    -0.59670
N187        N  0.20863712  0.35709348  0.93192201    -0.06530
N188        N  0.21150938  0.35052624  0.95715905    -0.62180
C189        C  0.20977136  0.30756649  0.95899035     0.94600
C190        C  0.08485344  0.37451720  0.88200945     0.94380
N191        N  0.24169262  0.47720416  0.86549392    -0.07760
N192        N  0.24323961  0.51623894  0.85718320    -0.60280
N193        N  0.26893064  0.43933227  0.92312882    -0.05880
N194        N  0.27730133  0.45415205  0.94657513    -0.61530
N195        N  0.30045922  0.44766854  0.90738229    -0.07790
N196        N  0.33064018  0.46856855  0.91991683    -0.60540
N197        N  0.21006976  0.47238243  0.88185018    -0.05530
N198        N  0.18986098  0.50865246  0.88465733    -0.61620
Mn199      Mn  0.20759899  0.41586996  0.90792070     1.18440
C200        C  0.21045357  0.53555955  0.86872468     0.96680
C201        C  0.31593816  0.47210591  0.94440344     0.97340
N202        N  0.19065652  0.29950125  0.83826993    -0.07810
N203        N  0.15740404  0.28943421  0.82416697    -0.64120
N204        N  0.28417916  0.27467527  0.86521438    -0.06620
N205        N  0.31157698  0.24380240  0.86657510    -0.64800
N206        N  0.25164701  0.26733435  0.87993513    -0.07320
N207        N  0.25617759  0.23152096  0.89206070    -0.64390
N208        N  0.22345889  0.30544019  0.82364800    -0.06220
N209        N  0.21376565  0.29981891  0.79917419    -0.65080
Mn210      Mn  0.19782958  0.30995088  0.87955361     1.10660
C211        C  0.17258135  0.28920224  0.79970023     0.97900
C212        C  0.29385686  0.21714012  0.88367956     0.97980
N213        N  0.34622824  0.39033116  0.86579860    -0.07330
N214        N  0.38582207  0.39891922  0.87080472    -0.62700
N215        N  0.27538501  0.38196078  0.81555508    -0.06650
N216        N  0.28338542  0.37221758  0.79153092    -0.59430
N217        N  0.29327012  0.41791406  0.82241729    -0.07960
N218        N  0.31930884  0.42937462  0.80356330    -0.62270
N219        N  0.34182792  0.35221111  0.85591181    -0.06940
N220        N  0.37863415  0.33379318  0.85418612    -0.59450
Mn221      Mn  0.29582499  0.43431283  0.86497704     1.20190
Mn222      Mn  0.28192905  0.32855799  0.84008477     1.10090
Cl223      Cl  0.24565450  0.37306456  0.87355025    -0.87420
C224        C  0.40560244  0.36345115  0.86343447     0.94910
C225        C  0.31230885  0.40011999  0.78438324     0.94710
N226        N  0.30402476  0.80047301  0.90703483    -0.07580
N227        N  0.32457650  0.77160996  0.92039701    -0.59700
N228        N  0.21681212  0.78282360  0.87816048    -0.07260
N229        N  0.19576075  0.74693631  0.88137818    -0.61830
N230        N  0.24856295  0.77660268  0.86212913    -0.06860
N231        N  0.24929929  0.73678427  0.85437569    -0.59670
N232        N  0.27240705  0.81452186  0.92090980    -0.06530
N233        N  0.27080295  0.79707834  0.94339204    -0.62180
C234        C  0.30320947  0.77084582  0.94323045     0.94600
C235        C  0.21604314  0.71850853  0.86615693     0.94380
N236        N  0.15785849  0.90055981  0.87957659    -0.07760
N237        N  0.12109336  0.90531695  0.86832535    -0.60280
N238        N  0.22157180  0.89411347  0.93242542    -0.05880
N239        N  0.23841181  0.89552878  0.95586043    -0.61530
N240        N  0.21779967  0.93257993  0.92368866    -0.07790
N241        N  0.23198355  0.96048569  0.94075960    -0.60540
N242        N  0.16114700  0.86224595  0.88834379    -0.05530
N243        N  0.12715024  0.83992400  0.88355077    -0.61620
Mn244      Mn  0.21701728  0.83872548  0.90530332     1.18440
C245        C  0.10280702  0.86694694  0.87089324     0.96680
C246        C  0.24436411  0.93730828  0.96091405     0.97340
N247        N  0.30588507  0.83591219  0.82310857    -0.07810
N248        N  0.31942386  0.81658455  0.80166992    -0.64120
N249        N  0.36064439  0.89797493  0.86188616    -0.06620
N250        N  0.40069104  0.91036974  0.86057604    -0.64800
N251        N  0.35903660  0.85857779  0.86971338    -0.07320
N252        N  0.39673870  0.84421301  0.87429008    -0.64390
N253        N  0.30028750  0.87591175  0.81810181    -0.06220
N254        N  0.30692508  0.88396284  0.79393456    -0.65080
Mn255      Mn  0.30496919  0.81714619  0.86499945     1.10660
C256        C  0.31905930  0.84747084  0.78347873     0.97900
C257        C  0.42271375  0.87614350  0.86843760     0.97980
N258        N  0.26522979  0.98663980  0.88541134    -0.07330
N259        N  0.26618060  0.02380278  0.89692591    -0.62700
N260        N  0.24227817  0.94910669  0.82699838    -0.06650
N261        N  0.23266359  0.95017239  0.80219284    -0.59430
N262        N  0.20819189  0.95464862  0.84090854    -0.07960
N263        N  0.17505476  0.95993915  0.82592165    -0.62270
N264        N  0.29999718  0.98023320  0.87235796    -0.06940
N265        N  0.32500405  0.01374031  0.87429623    -0.59450
Mn266      Mn  0.21077645  0.94453597  0.88258876     1.20190
Mn267      Mn  0.30197598  0.92676378  0.84493515     1.10090
Cl268      Cl  0.25891763  0.88163611  0.87439477    -0.87420
C269        C  0.30377317  0.04036526  0.89029669     0.94910
C270        C  0.19069799  0.95751242  0.80160723     0.94710
N271        N  0.68914655  0.27867124  0.90960218    -0.07580
N272        N  0.68441029  0.24673035  0.92558523    -0.59700
N273        N  0.64268667  0.35725776  0.87755823    -0.07260
N274        N  0.60542380  0.37443484  0.87619461    -0.61830
N275        N  0.64318942  0.32094731  0.86516156    -0.06860
N276        N  0.60623422  0.31255995  0.85487675    -0.59670
N277        N  0.68743645  0.31474876  0.92240778    -0.06530
N278        N  0.68185943  0.30801355  0.94727912    -0.62180
C279        C  0.67966524  0.26545941  0.94915288     0.94600
C280        C  0.58320532  0.34626851  0.86191165     0.94380
N281        N  0.73686696  0.44752336  0.87126681    -0.07760
N282        N  0.73990564  0.48796216  0.86659577    -0.60280
N283        N  0.74404060  0.39435177  0.92723350    -0.05880
N284        N  0.73731981  0.40616014  0.95115071    -0.61530
N285        N  0.77888490  0.41107267  0.91817985    -0.07790
N286        N  0.79574865  0.43636425  0.93608060    -0.60540
N287        N  0.70137150  0.43873621  0.88326048    -0.05530
N288        N  0.68033038  0.47411215  0.88759124    -0.61620
Mn289      Mn  0.69328427  0.37638593  0.90268859     1.18440
C290        C  0.70475816  0.50448730  0.87678349     0.96680
C291        C  0.76970943  0.43183913  0.95672604     0.97340
N292        N  0.70420514  0.28548008  0.82488840    -0.07810
N293        N  0.67294915  0.29234625  0.80875839    -0.64120
N294        N  0.78765862  0.24824713  0.85830310    -0.06620
N295        N  0.81294864  0.21518507  0.85824800    -0.64800
N296        N  0.75127051  0.23812220  0.86857167    -0.07320
N297        N  0.75118984  0.19862724  0.87591132    -0.64390
N298        N  0.74021694  0.29742942  0.81459081    -0.06220
N299        N  0.73352293  0.31278994  0.79132094    -0.65080
Mn300      Mn  0.69667494  0.27923416  0.86700127     1.10660
C301        C  0.69140827  0.30894318  0.78766761     0.97900
C302        C  0.78983210  0.18434793  0.86962087     0.97980
N303        N  0.84401201  0.36599837  0.87980226    -0.07330
N304        N  0.88027131  0.37797158  0.88956282    -0.62700
N305        N  0.80513074  0.37072512  0.82079014    -0.06650
N306        N  0.82183024  0.37533105  0.79773822    -0.59430
N307        N  0.80518424  0.40678934  0.83363757    -0.07960
N308        N  0.82294513  0.43659667  0.81949593    -0.62270
N309        N  0.84763799  0.33055191  0.86631450    -0.06940
N310        N  0.88720225  0.31812662  0.86668090    -0.59450
Mn311      Mn  0.79152451  0.40819015  0.87570443     1.20190
Mn312      Mn  0.79599964  0.31035727  0.83959751     1.10090
Cl313      Cl  0.74465721  0.34346584  0.87137565    -0.87420
C314        C  0.90679712  0.34782166  0.88162767     0.94910
C315        C  0.83222941  0.41650754  0.79693778     0.94710
N316        N  0.73568855  0.91934517  0.90712614    -0.07580
N317        N  0.71771707  0.94801804  0.92237734    -0.59700
N318        N  0.81424528  0.93840384  0.87103167    -0.07260
N319        N  0.83377765  0.97536864  0.87426332    -0.61830
N320        N  0.77958537  0.94375078  0.85755705    -0.06860
N321        N  0.77603802  0.98342241  0.85093065    -0.59670
N322        N  0.77090246  0.90684038  0.91788405    -0.06530
N323        N  0.77766487  0.92626431  0.93996538    -0.62180
C324        C  0.74466072  0.95165906  0.94263646     0.94600
C325        C  0.80971049  0.00316722  0.86134015     0.94380
N326        N  0.86981296  0.81673646  0.86353038    -0.07760
N327        N  0.90661208  0.80615167  0.85393200    -0.60280
N328        N  0.82815150  0.82465291  0.92181364    -0.05880
N329        N  0.83947136  0.82207969  0.94644759    -0.61530
N330        N  0.82513485  0.78645994  0.91169089    -0.07790
N331        N  0.83432836  0.75768348  0.92880471    -0.60540
N332        N  0.87073975  0.85590138  0.87202964    -0.05530
N333        N  0.90785748  0.87302096  0.86823281    -0.61620
Mn334      Mn  0.82149934  0.88136423  0.89594765     1.18440
C335        C  0.92952655  0.84195444  0.85649736     0.96680
C336        C  0.84347961  0.77985955  0.95050223     0.97340
N337        N  0.71242082  0.88987084  0.82260202    -0.07810
N338        N  0.69907352  0.91251925  0.80277616    -0.64120
N339        N  0.66439466  0.82727352  0.86319184    -0.06620
N340        N  0.62378689  0.81740038  0.86201939    -0.64800
N341        N  0.66871820  0.86603886  0.87253448    -0.07320
N342        N  0.63191888  0.88237211  0.87812542    -0.64390
N343        N  0.71301784  0.84989095  0.81563571    -0.06220
N344        N  0.70177620  0.84434114  0.79165366    -0.65080
Mn345      Mn  0.72377997  0.90520634  0.86483787     1.10660
C346        C  0.69340291  0.88305386  0.78350174     0.97900
C347        C  0.60392028  0.85217601  0.87156980     0.97980
N348        N  0.76026546  0.73636679  0.87737615    -0.07330
N349        N  0.75942899  0.69926598  0.88832906    -0.62700
N350        N  0.77267825  0.77564716  0.81732746    -0.06650
N351        N  0.77932207  0.77974218  0.79214854    -0.59430
N352        N  0.80831575  0.76731139  0.82884702    -0.07960
N353        N  0.83937678  0.76527162  0.81197409    -0.62270
N354        N  0.72390335  0.74403024  0.86658462    -0.06940
N355        N  0.69786437  0.71169456  0.86963732    -0.59450
Mn356      Mn  0.81598562  0.77570632  0.87044687     1.20190
Mn357      Mn  0.71773494  0.79804864  0.84084665     1.10090
Cl358      Cl  0.76914793  0.84021606  0.86849109    -0.87420
C359        C  0.72026155  0.68404537  0.88362112     0.94910
C360        C  0.82109937  0.77249438  0.78902896     0.94710
N361        N  0.95631017  0.43445560  0.67008309    -0.07580
N362        N  0.92409289  0.43911006  0.68579465    -0.59700
N363        N  0.03902957  0.48044239  0.64086816    -0.07260
N364        N  0.06097437  0.51598457  0.63927268    -0.61830
N365        N  0.00292756  0.48394662  0.62879624    -0.06860
N366        N  0.99977600  0.52145682  0.61874242    -0.59670
N367        N  0.99147629  0.43078802  0.68310768    -0.06530
N368        N  0.98337154  0.43255257  0.70821367    -0.62180
C369        C  0.94104396  0.43799619  0.70961642     0.94600
C370        C  0.03605480  0.54121457  0.62509614     0.94380
N371        N  0.11777959  0.37599867  0.62748003    -0.07760
N372        N  0.15642547  0.37267625  0.61864292    -0.60280
N373        N  0.06331749  0.36299663  0.68184537    -0.05880
N374        N  0.06918813  0.35751174  0.70670270    -0.61530
N375        N  0.07002489  0.32770711  0.66889465    -0.07790
N376        N  0.08132640  0.29764790  0.68470672    -0.60540
N377        N  0.11318800  0.41155519  0.64058233    -0.05530
N378        N  0.14942934  0.43289858  0.64087003    -0.61620
Mn379      Mn  0.05266094  0.42259601  0.66221406     1.18440
C380        C  0.17609026  0.40838688  0.62662973     0.96680
C381        C  0.07976835  0.31650964  0.70826288     0.97340
N382        N  0.95319966  0.43467655  0.58589419    -0.07810
N383        N  0.94551106  0.46689933  0.57102572    -0.64120
N384        N  0.91540570  0.34858968  0.61309340    -0.06620
N385        N  0.88235018  0.32332901  0.61253349    -0.64800
N386        N  0.90780754  0.38274702  0.62687133    -0.07320
N387        N  0.86896997  0.38159432  0.63585870    -0.64390
N388        N  0.96055939  0.40066248  0.57192489    -0.06220
N389        N  0.95786809  0.40912241  0.54703879    -0.65080
Mn390      Mn  0.95428025  0.43464450  0.62807866     1.10660
C391        C  0.94801239  0.45064194  0.54684907     0.97900
C392        C  0.85398812  0.34382648  0.62724681     0.97980
N393        N  0.02030023  0.27733649  0.62538818    -0.07330
N394        N  0.02225771  0.23850413  0.63391670    -0.62700
N395        N  0.03311896  0.33267156  0.57136758    -0.06650
N396        N  0.03762804  0.32353256  0.54669170    -0.59430
N397        N  0.06813862  0.32535771  0.58393628    -0.07960
N398        N  0.09698472  0.31050260  0.56794638    -0.62270
N399        N  0.98560657  0.28246847  0.61212770    -0.06940
N400        N  0.96313766  0.24728368  0.61145008    -0.59450
Mn401      Mn  0.06972015  0.32592608  0.62645774     1.20190
Mn402      Mn  0.97343850  0.34085602  0.59152369     1.10090
Cl403      Cl  0.01290040  0.38130042  0.62700425    -0.87420
C404        C  0.98601566  0.22046954  0.62555847     0.94910
C405        C  0.07772869  0.31047850  0.54470463     0.94710
N406        N  0.95364049  0.82267131  0.66318168    -0.07580
N407        N  0.93126210  0.79552517  0.67703269    -0.59700
N408        N  0.92160908  0.90732698  0.63493650    -0.07260
N409        N  0.88678780  0.92941606  0.63595021    -0.61830
N410        N  0.91638319  0.87349025  0.62003912    -0.06860
N411        N  0.87773428  0.87198969  0.61097176    -0.59670
N412        N  0.96173203  0.85681187  0.67718687    -0.06530
N413        N  0.94536100  0.85326671  0.70043562    -0.62180
C414        C  0.92654691  0.81492947  0.70041608     0.94600
C415        C  0.86005171  0.90751978  0.62056421     0.94380
N416        N  0.02574484  0.98553171  0.63012864    -0.07760
N417        N  0.02775889  0.02478771  0.62237652    -0.60280
N418        N  0.03712726  0.92616370  0.68222177    -0.05880
N419        N  0.04389082  0.92856792  0.70747782    -0.61530
N420        N  0.07248055  0.93350340  0.66969585    -0.07790
N421        N  0.10353417  0.94080309  0.68592700    -0.60540
N422        N  0.98999465  0.97828906  0.64191490    -0.05530
N423        N  0.96685472  0.01268342  0.64259712    -0.61620
Mn424      Mn  0.97736007  0.91735531  0.65967558     1.18440
C425        C  0.99084908  0.04142842  0.63020202     0.96680
C426        C  0.08568616  0.93772346  0.70949588     0.97340
N427        N  0.97109789  0.81833156  0.57649571    -0.07810
N428        N  0.95302218  0.79306803  0.55874939    -0.64120
N429        N  0.04982464  0.78395242  0.60959376    -0.06620
N430        N  0.07220383  0.74894654  0.60925470    -0.64800
N431        N  0.01376426  0.77729876  0.62151433    -0.07320
N432        N  0.01107682  0.73841305  0.62962129    -0.64390
N433        N  0.00626415  0.83324942  0.56681896    -0.06220
N434        N  0.01137181  0.82133855  0.54273775    -0.65080
Mn435      Mn  0.96265527  0.82224104  0.62014222     1.10660
C436        C  0.97839990  0.79640733  0.53746006     0.97900
C437        C  0.04781713  0.72110109  0.62231383     0.97980
N438        N  0.12455303  0.89009131  0.62504944    -0.07330
N439        N  0.16289354  0.89051211  0.63486989    -0.62700
N440        N  0.06544382  0.90735504  0.57082564    -0.06650
N441        N  0.04826697  0.91732283  0.54841293    -0.59430
N442        N  0.07106459  0.94157870  0.58510991    -0.07960
N443        N  0.05808540  0.97493653  0.57256886    -0.62270
N444        N  0.11868544  0.85580654  0.61111432    -0.06940
N445        N  0.15265357  0.83226502  0.61100184    -0.59450
Mn446      Mn  0.07491428  0.93823888  0.62749677     1.20190
Mn447      Mn  0.06110936  0.84490975  0.58943972     1.10090
Cl448      Cl  0.01894448  0.88036490  0.62447322    -0.87420
C449        C  0.18012322  0.85392745  0.62609249     0.94910
C450        C  0.04437814  0.95984591  0.54952875     0.94710
N451        N  0.44821692  0.32297627  0.66840281    -0.07580
N452        N  0.41615334  0.31238382  0.68362771    -0.59700
N453        N  0.42228763  0.40445976  0.63799264    -0.07260
N454        N  0.38831599  0.42864489  0.63915244    -0.61830
N455        N  0.41374792  0.37036304  0.62403430    -0.06860
N456        N  0.37465926  0.37063204  0.61576101    -0.59670
N457        N  0.47004185  0.35288857  0.68012537    -0.06530
N458        N  0.45699906  0.35942929  0.70371704    -0.62180
C459        C  0.42273310  0.33546551  0.70574455     0.94600
C460        C  0.35875228  0.40718441  0.62502143     0.94380
N461        N  0.53816239  0.46769643  0.62808724    -0.07760
N462        N  0.54257304  0.50375005  0.61634357    -0.60280
N463        N  0.54506664  0.40981207  0.68193631    -0.05880
N464        N  0.55219839  0.39676101  0.70573096    -0.61530
N465        N  0.58076746  0.41264983  0.66937796    -0.07790
N466        N  0.61251056  0.40205647  0.68423761    -0.60540
N467        N  0.50177101  0.46571661  0.63980139    -0.05530
N468        N  0.48051304  0.50070603  0.63652782    -0.61620
Mn469      Mn  0.48426511  0.40924670  0.66020444     1.18440
C470        C  0.50640543  0.52405587  0.62163538     0.96680
C471        C  0.59463165  0.39246903  0.70710494     0.97340
N472        N  0.45982437  0.30922928  0.58179614    -0.07810
N473        N  0.43315194  0.28996931  0.56562594    -0.64120
N474        N  0.53645422  0.26556298  0.61373968    -0.06620
N475        N  0.55492487  0.22845892  0.61427417    -0.64800
N476        N  0.50042981  0.26413374  0.62639982    -0.07320
N477        N  0.49398596  0.22621371  0.63561042    -0.64390
N478        N  0.49655385  0.31403582  0.57031994    -0.06220
N479        N  0.49524782  0.29883592  0.54657328    -0.65080
Mn480      Mn  0.45472631  0.31583108  0.62504742     1.10660
C481        C  0.45567806  0.28417988  0.54351394     0.97900
C482        C  0.52808678  0.20417262  0.62807004     0.97980
N483        N  0.62311397  0.36231305  0.62647993    -0.07330
N484        N  0.66185682  0.36215100  0.63513415    -0.62700
N485        N  0.57133373  0.38196902  0.57145392    -0.06650
N486        N  0.57127737  0.39161657  0.54665055    -0.59430
N487        N  0.58053429  0.41574697  0.58545856    -0.07960
N488        N  0.58646806  0.44878784  0.57082684    -0.62270
N489        N  0.61486124  0.32802211  0.61293051    -0.06940
N490        N  0.64853721  0.30396500  0.61166120    -0.59450
Mn491      Mn  0.58145457  0.41550592  0.62743500     1.20190
Mn492      Mn  0.55543604  0.32184740  0.59149033     1.10090
Cl493      Cl  0.51863460  0.36559165  0.62574868    -0.87420
C494        C  0.67721300  0.32535989  0.62620658     0.94910
C495        C  0.58041542  0.43362835  0.54671960     0.94710
N496        N  0.58363288  0.80854160  0.65910132    -0.07580
N497        N  0.61632939  0.81924970  0.67334473    -0.59700
N498        N  0.50076989  0.76039835  0.62871701    -0.07260
N499        N  0.47926877  0.72483207  0.62586086    -0.61830
N500        N  0.53679712  0.75795943  0.61661890    -0.06860
N501        N  0.54055377  0.72124627  0.60504391    -0.59670
N502        N  0.54862978  0.81238456  0.67236949    -0.06530
N503        N  0.55734062  0.82637184  0.69605731    -0.62180
C504        C  0.59989321  0.82979070  0.69647652     0.94600
C505        C  0.50455851  0.70082920  0.61067481     0.94380
N506        N  0.41874743  0.86100564  0.61872271    -0.07760
N507        N  0.37865270  0.86578305  0.61358055    -0.60280
N508        N  0.47650330  0.87090354  0.67461000    -0.05880
N509        N  0.46487037  0.86392613  0.69824939    -0.61530
N510        N  0.45747383  0.90358291  0.66502380    -0.07790
N511        N  0.42906540  0.91693202  0.68213421    -0.60540
N512        N  0.42490509  0.82609317  0.63169765    -0.05530
N513        N  0.38812883  0.80703508  0.63578873    -0.61620
Mn514      Mn  0.48711853  0.81609597  0.65203927     1.18440
C515        C  0.35966603  0.83201112  0.62400537     0.96680
C516        C  0.43460271  0.89158298  0.70297454     0.97340
N517        N  0.57920040  0.81026931  0.57557689    -0.07810
N518        N  0.56872714  0.77807233  0.56045933    -0.64120
N519        N  0.62017921  0.89572860  0.60752761    -0.06620
N520        N  0.65315942  0.92118156  0.60850989    -0.64800
N521        N  0.62860320  0.85958229  0.61802219    -0.07320
N522        N  0.66733645  0.85954472  0.62675874    -0.64390
N523        N  0.57078360  0.84599386  0.56433039    -0.06220
N524        N  0.55419823  0.83839482  0.54130161    -0.65080
Mn525      Mn  0.58328750  0.80789217  0.61736591     1.10660
C526        C  0.55345372  0.79587702  0.53899706     0.97900
C527        C  0.68228252  0.89819789  0.62076987     0.97980
N528        N  0.51073978  0.96221065  0.62552972    -0.07330
N529        N  0.50500671  0.99987566  0.63560935    -0.62700
N530        N  0.50360066  0.90928984  0.56801230    -0.06650
N531        N  0.50683989  0.92139345  0.54426652    -0.59430
N532        N  0.46914173  0.92302792  0.57902493    -0.07960
N533        N  0.45019778  0.94890944  0.56277179    -0.62270
N534        N  0.54590825  0.96088594  0.61208353    -0.06940
N535        N  0.56452163  0.99843943  0.61279205    -0.59450
Mn536      Mn  0.46294993  0.91347061  0.62198912     1.20190
Mn537      Mn  0.56107857  0.90385855  0.58782027     1.10090
Cl538      Cl  0.52336570  0.86040009  0.61978602    -0.87420
C539        C  0.53875575  0.02235396  0.62784957     0.94910
C540        C  0.47422961  0.94642116  0.54084892     0.94710
N541        N  0.06484847  0.17331608  0.33705142    -0.07580
N542        N  0.09590286  0.17504504  0.32062571    -0.59700
N543        N  0.99560741  0.23211560  0.36874863    -0.07260
N544        N  0.98261658  0.27161293  0.36751578    -0.61830
N545        N  0.03363344  0.23146933  0.37875213    -0.06860
N546        N  0.04694865  0.26957215  0.38470795    -0.59670
N547        N  0.02818392  0.17316721  0.32542225    -0.06530
N548        N  0.03438574  0.17520420  0.30007864    -0.62180
C549        C  0.07720256  0.17671084  0.29769180     0.94600
C550        C  0.01498574  0.29423926  0.37800687     0.94380
N551        N  0.90454068  0.13830706  0.39072113    -0.07760
N552        N  0.86452698  0.13645363  0.39753330    -0.60280
N553        N  0.94561031  0.11435757  0.33269573    -0.05880
N554        N  0.93341263  0.10813225  0.30860801    -0.61530
N555        N  0.93539961  0.08167824  0.34689066    -0.07790
N556        N  0.91559841  0.05272711  0.33247811    -0.60540
N557        N  0.91136575  0.17100974  0.37562138    -0.05530
N558        N  0.87552394  0.19149572  0.37225081    -0.61620
Mn559      Mn  0.96947241  0.17376912  0.35008861     1.18440
C560        C  0.84663384  0.17014991  0.38650891     0.96680
C561        C  0.91514802  0.06946498  0.30850518     0.97340
N562        N  0.08380592  0.18226705  0.41865831    -0.07810
N563        N  0.09469678  0.21557217  0.43260431    -0.64120
N564        N  0.10744888  0.09023935  0.38997123    -0.06620
N565        N  0.13810947  0.06253508  0.38849840    -0.64800
N566        N  0.11576038  0.12280929  0.37563494    -0.07320
N567        N  0.15223157  0.11806946  0.36382662    -0.64390
N568        N  0.07572299  0.15001247  0.43330726    -0.06220
N569        N  0.08074382  0.16064565  0.45785119    -0.65080
Mn570      Mn  0.07462472  0.17780801  0.37742283     1.10660
C571        C  0.09311888  0.20164605  0.45705852     0.97900
C572        C  0.16561056  0.07995757  0.37170359     0.97980
N573        N  0.99013507  0.03156469  0.38689403    -0.07330
N574        N  0.98246228  0.99349146  0.37774185    -0.62700
N575        N  0.99923241  0.09160905  0.44037266    -0.06650
N576        N  0.00592389  0.08091606  0.46420540    -0.59430
N577        N  0.96078857  0.08155189  0.43290856    -0.07960
N578        N  0.94188858  0.06061179  0.45198171    -0.62270
N579        N  0.02825232  0.03423526  0.39652618    -0.06940
N580        N  0.04741084  0.99793444  0.39409101    -0.59450
Mn581      Mn  0.94660009  0.08295211  0.38977810     1.20190
Mn582      Mn  0.05268960  0.09116906  0.41527766     1.10090
Cl583      Cl  0.01026135  0.13169870  0.38323658    -0.87420
C584        C  0.01840742  0.97297305  0.38237941     0.94910
C585        C  0.97065370  0.06155889  0.47163097     0.94710
N586        N  0.11717333  0.68451729  0.34233200    -0.07580
N587        N  0.15102728  0.69039155  0.32803824    -0.59700
N588        N  0.03480999  0.73313526  0.36755993    -0.07260
N589        N  0.01767093  0.77007101  0.36433581    -0.61830
N590        N  0.06915998  0.73656661  0.38130687    -0.06860
N591        N  0.07656669  0.77619130  0.38767205    -0.59670
N592        N  0.08329191  0.68181258  0.32781269    -0.06530
N593        N  0.09367058  0.68599282  0.30325582    -0.62180
C594        C  0.13613277  0.69093771  0.30363932     0.94600
C595        C  0.04404097  0.79643367  0.37700327     0.94380
N596        N  0.94861963  0.64014289  0.38049071    -0.07760
N597        N  0.90883338  0.63889707  0.38688769    -0.60280
N598        N  0.00288981  0.62207631  0.32374546    -0.05880
N599        N  0.98472267  0.63019469  0.30171337    -0.61530
N600        N  0.98276005  0.59147995  0.33561195    -0.07790
N601        N  0.94862462  0.58092555  0.32213490    -0.60540
N602        N  0.95670882  0.67248601  0.36560911    -0.05530
N603        N  0.92141788  0.69320543  0.36114495    -0.61620
Mn604      Mn  0.01960763  0.67733256  0.34589724     1.18440
C605        C  0.89184257  0.67202784  0.37497023     0.96680
C606        C  0.95039998  0.60545042  0.30094765     0.97340
N607        N  0.09954996  0.68351821  0.42656265    -0.07810
N608        N  0.08390908  0.71600365  0.43964944    -0.64120
N609        N  0.14724331  0.59659199  0.39737304    -0.06620
N610        N  0.18138318  0.57260770  0.39751576    -0.64800
N611        N  0.15595590  0.63266568  0.38655914    -0.07320
N612        N  0.19523094  0.63377761  0.37872132    -0.64390
N613        N  0.08965494  0.64797165  0.43807927    -0.06220
N614        N  0.06706193  0.65646453  0.45909275    -0.65080
Mn615      Mn  0.11192607  0.68465792  0.38459283     1.10660
C616        C  0.06364651  0.69909049  0.46000951     0.97900
C617        C  0.21133967  0.59654165  0.38567040     0.97980
N618        N  0.03174927  0.53301970  0.37626299    -0.07330
N619        N  0.02115511  0.49526312  0.36780273    -0.62700
N620        N  0.02387219  0.57847379  0.43336547    -0.06650
N621        N  0.01963431  0.56520176  0.45706125    -0.59430
N622        N  0.98802466  0.57631526  0.42096089    -0.07960
N623        N  0.95850896  0.56032176  0.43626314    -0.62270
N624        N  0.06684483  0.53200310  0.38992404    -0.06940
N625        N  0.08001859  0.49261215  0.39118141    -0.59450
Mn626      Mn  0.98757113  0.58492161  0.37843770     1.20190
Mn627      Mn  0.08391271  0.58778778  0.41503238     1.10090
Cl628      Cl  0.05118233  0.63286505  0.38058769    -0.87420
C629        C  0.05155689  0.47048938  0.37675359     0.94910
C630        C  0.97882928  0.55455626  0.45899320     0.94710
N631        N  0.58428432  0.07468248  0.34192170    -0.07580
N632        N  0.61997155  0.06303099  0.33053901    -0.59700
N633        N  0.59884526  0.16004143  0.37200500    -0.07260
N634        N  0.63417728  0.18211790  0.36849464    -0.61830
N635        N  0.60627438  0.12842478  0.38759726    -0.06860
N636        N  0.64615840  0.12865915  0.39466786    -0.59670
N637        N  0.56669380  0.10402922  0.32796587    -0.06530
N638        N  0.58821310  0.11085815  0.30686181    -0.62180
C639        C  0.62148432  0.08570478  0.30845949     0.94600
C640        C  0.66339948  0.16256835  0.38313782     0.94380
N641        N  0.47681692  0.21358294  0.37614716    -0.07760
N642        N  0.47046022  0.24903380  0.38911199    -0.60280
N643        N  0.48356634  0.15246928  0.32125979    -0.05880
N644        N  0.48035538  0.13696545  0.29733680    -0.61530
N645        N  0.44590702  0.15532411  0.33156284    -0.07790
N646        N  0.41694136  0.14242067  0.31515902    -0.60540
N647        N  0.51495328  0.21293018  0.36652455    -0.05530
N648        N  0.53544063  0.24773393  0.37273020    -0.61620
Mn649      Mn  0.54063867  0.15839694  0.34651827     1.18440
C650        C  0.50740496  0.26997014  0.38681593     0.96680
C651        C  0.43829528  0.13103274  0.29378051     0.97340
N652        N  0.55043781  0.06736309  0.42670643    -0.07810
N653        N  0.57050508  0.05309220  0.44731622    -0.64120
N654        N  0.49069898  0.01029021  0.38850730    -0.06620
N655        N  0.48133842  0.96933394  0.38998922    -0.64800
N656        N  0.52929292  0.01440945  0.37938751    -0.07320
N657        N  0.54586589  0.97753371  0.37422218    -0.64390
N658        N  0.51077497  0.07249159  0.43292243    -0.06220
N659        N  0.50387423  0.06594455  0.45728025    -0.65080
Mn660      Mn  0.56788096  0.07071273  0.38432644     1.10660
C661        C  0.54062952  0.05355286  0.46642509     0.97900
C662        C  0.51632819  0.94929457  0.38077738     0.97980
N663        N  0.39585165  0.10227506  0.36932550    -0.07330
N664        N  0.35758911  0.10077833  0.35977519    -0.62700
N665        N  0.43406578  0.12462704  0.42744550    -0.06650
N666        N  0.43383934  0.13310570  0.45253289    -0.59430
N667        N  0.42629896  0.15901909  0.41461945    -0.07960
N668        N  0.42010911  0.19131178  0.43060925    -0.62270
N669        N  0.40429024  0.06739584  0.38152949    -0.06940
N670        N  0.37101948  0.04194971  0.38117308    -0.59450
Mn671      Mn  0.43548484  0.15888231  0.37274756     1.20190
Mn672      Mn  0.45922105  0.06735338  0.40737846     1.10090
Cl673      Cl  0.50097454  0.11356547  0.37769000    -0.87420
C674        C  0.34232890  0.06299935  0.36707399     0.94910
C675        C  0.42428195  0.17462233  0.45431993     0.94710
N676        N  0.48559054  0.63865071  0.33771454    -0.07580
N677        N  0.46121808  0.65715770  0.32048571    -0.59700
N678        N  0.45622130  0.56060150  0.37226301    -0.07260
N679        N  0.41880685  0.54152949  0.36975614    -0.61830
N680        N  0.45158801  0.59594697  0.38559641    -0.06860
N681        N  0.41249912  0.60059093  0.39302414    -0.59670
N682        N  0.49987805  0.60324381  0.32765043    -0.06530
N683        N  0.48755354  0.59767360  0.30389624    -0.62180
C684        C  0.46376024  0.63110961  0.29936324     0.94600
C685        C  0.39182733  0.56682864  0.38329927     0.94380
N686        N  0.57375970  0.49961175  0.38460674    -0.07760
N687        N  0.57969763  0.46445018  0.39719314    -0.60280
N688        N  0.57688246  0.54331853  0.32671218    -0.05880
N689        N  0.58389387  0.53670095  0.30165299    -0.61530
N690        N  0.61294725  0.54515706  0.33889100    -0.07790
N691        N  0.64462253  0.53957778  0.32296273    -0.60540
N692        N  0.53630597  0.49957205  0.37407011    -0.05530
N693        N  0.51588452  0.46443052  0.37910100    -0.61620
Mn694      Mn  0.51690964  0.55077660  0.34985144     1.18440
C695        C  0.54330288  0.44294760  0.39362780     0.96680
C696        C  0.62669622  0.53449801  0.29966631     0.97340
N697        N  0.49969357  0.66081372  0.42314271    -0.07810
N698        N  0.47435181  0.68076433  0.43955087    -0.64120
N699        N  0.57063282  0.70686149  0.38919232    -0.06620
N700        N  0.58065667  0.74734705  0.39273399    -0.64800
N701        N  0.53459530  0.70399704  0.37658219    -0.07320
N702        N  0.52012249  0.74160956  0.37134631    -0.64390
N703        N  0.53677030  0.65631684  0.43388303    -0.06220
N704        N  0.53693308  0.67107354  0.45761170    -0.65080
Mn705      Mn  0.49257198  0.65010517  0.38059233     1.10660
C706        C  0.49796857  0.68571680  0.46125083     0.97900
C707        C  0.54875823  0.76851348  0.38136489     0.97980
N708        N  0.65857759  0.60743969  0.37620654    -0.07330
N709        N  0.69643876  0.60705059  0.36617391    -0.62700
N710        N  0.61077191  0.59315543  0.43395441    -0.06650
N711        N  0.60549546  0.58402463  0.45871073    -0.59430
N712        N  0.62088206  0.55873833  0.42115939    -0.07960
N713        N  0.62325975  0.52635337  0.43646423    -0.62270
N714        N  0.65165646  0.64347011  0.38823442    -0.06940
N715        N  0.68560179  0.66800524  0.38697732    -0.59450
Mn716      Mn  0.61741600  0.55259082  0.38008101     1.20190
Mn717      Mn  0.59361721  0.65069826  0.41160689     1.10090
Cl718      Cl  0.55512986  0.60143590  0.38037174    -0.87420
C719        C  0.71336243  0.64462356  0.37301173     0.94910
C720        C  0.61414147  0.54200362  0.45991879     0.94710
C721        C  0.57358440  0.84293210  0.37825535    -0.10620
C722        C  0.54101071  0.81463122  0.38351882     0.05580
C723        C  0.50060583  0.83089442  0.38917322    -0.04380
C724        C  0.49322255  0.87446232  0.38824738    -0.08830
C725        C  0.52542156  0.90298165  0.38184239     0.04700
C726        C  0.56646986  0.88643625  0.37728199    -0.03860
Br727      Br  0.61566605  0.91984537  0.36973203    -0.03550
H728        H  0.60472100  0.83098668  0.37414555     0.08610
H729        H  0.46203036  0.88602497  0.39255624     0.06630
Br730      Br  0.45455734  0.79554135  0.39977986    -0.03980
C731        C  0.55848948  0.32641150  0.39595677    -0.10620
C732        C  0.51636673  0.31287649  0.39639353     0.05580
C733        C  0.48456695  0.34224421  0.40217169    -0.04380
C734        C  0.49505494  0.38492707  0.40390183    -0.08830
C735        C  0.53654624  0.39872487  0.40000078     0.04700
C736        C  0.56889877  0.36897625  0.39739362    -0.03860
Br737      Br  0.62683632  0.38348437  0.39124911    -0.03550
H738        H  0.58342836  0.30405422  0.39232851     0.08610
H739        H  0.47016650  0.40772022  0.40642526     0.06630
Br740      Br  0.42601444  0.32776974  0.40523104    -0.03980
C741        C  0.83033664  0.62996785  0.36364882    -0.10620
C742        C  0.84649650  0.67029407  0.36903547     0.05580
C743        C  0.81847678  0.70372029  0.37319152    -0.04380
C744        C  0.77478466  0.69552441  0.37333011    -0.08830
C745        C  0.75894117  0.65402963  0.37011744     0.04700
C746        C  0.78781552  0.62102690  0.36549163    -0.03860
Br747      Br  0.77464400  0.56162941  0.36625122    -0.03550
H748        H  0.85157239  0.60388592  0.36034023     0.08610
H749        H  0.75336215  0.72125113  0.37700435     0.06630
Br750      Br  0.83860052  0.75970814  0.38046252    -0.03980
C751        C  0.27246714  0.54517808  0.38544044    -0.10620
C752        C  0.25724726  0.58669470  0.38295085     0.05580
C753        C  0.28702272  0.61924544  0.37812947    -0.04380
C754        C  0.32957179  0.61013613  0.37624795    -0.08830
C755        C  0.34522412  0.56954095  0.38005896     0.04700
C756        C  0.31610753  0.53647865  0.38403339    -0.03860
Br757      Br  0.33466945  0.47995728  0.38886003    -0.03550
H758        H  0.25054056  0.51957861  0.38893724     0.08610
H759        H  0.35116680  0.63611816  0.37288066     0.06630
Br760      Br  0.27451968  0.67848683  0.37641681    -0.03980
C761        C  0.77917742  0.13726622  0.37236496    -0.10620
C762        C  0.79997557  0.17260120  0.38301660     0.05580
C763        C  0.77538123  0.20688008  0.39166944    -0.04380
C764        C  0.73088329  0.20454639  0.39045206    -0.08830
C765        C  0.71016630  0.16816171  0.38074983     0.04700
C766        C  0.73520574  0.13484003  0.37111144    -0.03860
Br767      Br  0.71137080  0.08458704  0.35599210    -0.03550
H768        H  0.79738429  0.11075504  0.36533948     0.08610
H769        H  0.71250345  0.23040183  0.39815093     0.06630
Br770      Br  0.80120076  0.25576083  0.40717943    -0.03980
C771        C  0.27497960  0.06879962  0.34410765    -0.10620
C772        C  0.29674667  0.05356519  0.36554172     0.05580
C773        C  0.27340907  0.03916068  0.38693183    -0.04380
C774        C  0.22973233  0.04451747  0.38754588    -0.08830
C775        C  0.20881383  0.06448137  0.36732913     0.04700
C776        C  0.23145254  0.07426583  0.34480964    -0.03860
Br777      Br  0.20486865  0.09638956  0.31476355    -0.03550
H778        H  0.29230520  0.07921496  0.32731672     0.08610
H779        H  0.21266954  0.03623046  0.40487058     0.06630
Br780      Br  0.29918318  0.01762216  0.41740772    -0.03980
C781        C  0.06528014  0.91281745  0.37851168    -0.10620
C782        C  0.02403945  0.92795439  0.37849078     0.05580
C783        C  0.98974401  0.89949705  0.37694515    -0.04380
C784        C  0.99750879  0.85665526  0.37638735    -0.08830
C785        C  0.03862842  0.84164935  0.37740682     0.04700
C786        C  0.07292730  0.86990233  0.37793847    -0.03860
Br787      Br  0.13064385  0.85264401  0.37665914    -0.03550
H788        H  0.09181916  0.93447851  0.37921360     0.08610
H789        H  0.97106916  0.83484775  0.37577894     0.06630
Br790      Br  0.93154942  0.91543931  0.37718804    -0.03980
C791        C  0.00845075  0.41078226  0.39125250    -0.10620
C792        C  0.04445100  0.42510207  0.37811420     0.05580
C793        C  0.06871625  0.39666527  0.36372314    -0.04380
C794        C  0.05717962  0.35414727  0.36299939    -0.08830
C795        C  0.02130680  0.33972727  0.37623533     0.04700
C796        C  0.99684710  0.36823729  0.39049533    -0.03860
Br797      Br  0.94918579  0.35009376  0.41027416    -0.03550
H798        H  0.98924043  0.43288973  0.40206835     0.08610
H799        H  0.07649014  0.33209552  0.35221060     0.06630
Br800      Br  0.11649721  0.41485456  0.34407844    -0.03980
C801        C  0.49440521  0.96147280  0.49705252    -0.10620
C802        C  0.48137332  0.97832428  0.52099758     0.05580
C803        C  0.49600073  0.01899165  0.52814638    -0.04380
C804        C  0.52242563  0.04166848  0.51145882    -0.08830
C805        C  0.53616551  0.02419249  0.48780789     0.04700
C806        C  0.52267453  0.98298105  0.48122050    -0.03860
Br807      Br  0.53915637  0.95579747  0.44948949    -0.03550
H808        H  0.48556976  0.92940777  0.49171519     0.08610
H809        H  0.53043338  0.07410096  0.51632013     0.06630
Br810      Br  0.48276117  0.04414872  0.56100626    -0.03980
C811        C  0.50345895  0.75919093  0.47553155    -0.10620
C812        C  0.49199647  0.71763082  0.48163718     0.05580
C813        C  0.49488298  0.70485051  0.50736064    -0.04380
C814        C  0.51321551  0.73163837  0.52587029    -0.08830
C815        C  0.52928533  0.77152004  0.51920776     0.04700
C816        C  0.52238118  0.78606833  0.49396573    -0.03860
Br817      Br  0.54323621  0.83946998  0.48230244    -0.03550
H818        H  0.50268242  0.76897699  0.45560290     0.08610
H819        H  0.51671999  0.72021278  0.54531733     0.06630
Br820      Br  0.47943406  0.64873393  0.51720029    -0.03980
C821        C  0.58216068  0.52869153  0.50305178    -0.10620
C822        C  0.60649753  0.51400190  0.48228760     0.05580
C823        C  0.61964197  0.47117099  0.48226070    -0.04380
C824        C  0.60916103  0.44502688  0.50284739    -0.08830
C825        C  0.58571343  0.46017829  0.52371623     0.04700
C826        C  0.57134371  0.50212879  0.52339108    -0.03860
Br827      Br  0.53340803  0.52361092  0.54891498    -0.03550
H828        H  0.57030323  0.56058450  0.50313208     0.08610
H829        H  0.62053684  0.41294348  0.50290899     0.06630
Br830      Br  0.65302922  0.44530184  0.45553273    -0.03980
C831        C  0.39755248  0.22448496  0.48884787    -0.10620
C832        C  0.43060478  0.20074878  0.47808236     0.05580
C833        C  0.47070391  0.20415246  0.48936563    -0.04380
C834        C  0.47734256  0.23093605  0.51065290    -0.08830
C835        C  0.44464081  0.25493836  0.52159039     0.04700
C836        C  0.40413830  0.25100746  0.51065613    -0.03860
Br837      Br  0.35762448  0.28274684  0.52379074    -0.03550
H838        H  0.36661035  0.22253636  0.48021639     0.08610
H839        H  0.50874984  0.23309735  0.51862600     0.06630
Br840      Br  0.51855837  0.17514969  0.47540749    -0.03980
C841        C  0.53277824  0.58785767  0.60115878    -0.10620
C842        C  0.49958440  0.56787013  0.61403696     0.05580
C843        C  0.46346732  0.59122988  0.62056818    -0.04380
C844        C  0.46398547  0.63486198  0.61724068    -0.08830
C845        C  0.49938375  0.65518295  0.60675858     0.04700
C846        C  0.53254370  0.63063092  0.59667300    -0.03860
Br847      Br  0.58045942  0.65199747  0.57798168    -0.03550
H848        H  0.56037696  0.57047945  0.59525619     0.08610
H849        H  0.43751284  0.65311553  0.62410166     0.06630
Br850      Br  0.41330136  0.56659586  0.63475305    -0.03980
C851        C  0.50277256  0.08861970  0.63890934    -0.10620
C852        C  0.53986389  0.06898756  0.63049147     0.05580
C853        C  0.57438333  0.09452385  0.62340454    -0.04380
C854        C  0.57031847  0.13854896  0.62365209    -0.08830
C855        C  0.53230022  0.15793572  0.63084010     0.04700
C856        C  0.49841161  0.13216341  0.63895783    -0.03860
Br857      Br  0.44366382  0.15233571  0.64876000    -0.03550
H858        H  0.47574837  0.06992907  0.64460838     0.08610
H859        H  0.59690520  0.15766650  0.61772001     0.06630
Br860      Br  0.62777852  0.07171617  0.61353162    -0.03980
C861        C  0.99325623  0.96646550  0.51221172    -0.10620
C862        C  0.01998471  0.98573087  0.53078966     0.05580
C863        C  0.02204092  0.03021582  0.53163832    -0.04380
C864        C  0.99707606  0.05397476  0.51526336    -0.08830
C865        C  0.97361755  0.03518291  0.49510443     0.04700
C866        C  0.97120555  0.99067368  0.49403030    -0.03860
Br867      Br  0.94254010  0.96150913  0.46648635    -0.03550
H868        H  0.99101322  0.93241203  0.51099383     0.08610
H869        H  0.00113191  0.08796383  0.51580510     0.06630
Br870      Br  0.06452251  0.06103438  0.55050482    -0.03980
C871        C  0.99441801  0.78537372  0.49146916    -0.10620
C872        C  0.98274211  0.76694911  0.51491615     0.05580
C873        C  0.99377913  0.72458699  0.51849236    -0.04380
C874        C  0.01981144  0.70352619  0.50052033    -0.08830
C875        C  0.03436720  0.72292434  0.47795675     0.04700
C876        C  0.01956573  0.76416581  0.47317946    -0.03860
Br877      Br  0.03336504  0.79542203  0.44305974    -0.03550
H878        H  0.98697545  0.81816910  0.48833479     0.08610
H879        H  0.03056945  0.67247308  0.50487179     0.06630
Br880      Br  0.97694654  0.69530574  0.54866246    -0.03980
C881        C  0.79242410  0.93691027  0.60619330    -0.10620
C882        C  0.81475369  0.91155528  0.62306580     0.05580
C883        C  0.79336563  0.88794367  0.64170424    -0.04380
C884        C  0.74977694  0.88720188  0.64191720    -0.08830
C885        C  0.72688901  0.90954471  0.62363246     0.04700
C886        C  0.74845067  0.93638957  0.60639715    -0.03860
Br887      Br  0.72075286  0.97035922  0.58136421    -0.03550
H888        H  0.80916196  0.95574353  0.59218885     0.08610
H889        H  0.73374454  0.86723634  0.65565125     0.06630
Br890      Br  0.82226540  0.85413192  0.66632055    -0.03980
C891        C  0.25192177  0.87301560  0.64085908    -0.10620
C892        C  0.22529172  0.84281712  0.62930693     0.05580
C893        C  0.24342166  0.80497241  0.61953560    -0.04380
C894        C  0.28742065  0.80015092  0.61952041    -0.08830
C895        C  0.31381835  0.83225215  0.62919267     0.04700
C896        C  0.29542466  0.86818430  0.64073720    -0.03860
Br897      Br  0.32820119  0.91307297  0.65582364    -0.03550
H898        H  0.23911922  0.90175521  0.64907360     0.08610
H899        H  0.30105999  0.77220704  0.61079502     0.06630
Br900      Br  0.21076350  0.75884437  0.60551361    -0.03980
C901        C  0.93822048  0.49506304  0.47895850    -0.10620
C902        C  0.96291841  0.53189863  0.48183307     0.05580
C903        C  0.97928111  0.54218496  0.50644725    -0.04380
C904        C  0.97243873  0.51570310  0.52706824    -0.08830
C905        C  0.95014329  0.47788955  0.52406167     0.04700
C906        C  0.93205512  0.46779894  0.49989080    -0.03860
Br907      Br  0.89878791  0.41774754  0.49470391    -0.03550
H908        H  0.92579385  0.48623883  0.46018674     0.08610
H909        H  0.98668398  0.52385338  0.54546060     0.06630
Br910      Br  0.01374090  0.59058842  0.51355883    -0.03980
C911        C  0.08864298  0.27321523  0.47617490    -0.10620
C912        C  0.09695927  0.23022510  0.47967505     0.05580
C913        C  0.10590318  0.21588986  0.50468220    -0.04380
C914        C  0.10377402  0.24400651  0.52567801    -0.08830
C915        C  0.09194029  0.28601129  0.52221701     0.04700
C916        C  0.08549771  0.30088698  0.49720092    -0.03860
Br917      Br  0.07037685  0.35826502  0.49090400    -0.03550
H918        H  0.08213695  0.28507057  0.45713002     0.08610
H919        H  0.10845629  0.23224081  0.54495473     0.06630
Br920      Br  0.12015047  0.15854206  0.51167517    -0.03980
C921        C  0.07841241  0.60734770  0.63225051    -0.10620
C922        C  0.04373411  0.58661683  0.62055522     0.05580
C923        C  0.01433660  0.61091342  0.60688243    -0.04380
C924        C  0.01784801  0.65445710  0.60742657    -0.08830
C925        C  0.05111266  0.67516581  0.61987285     0.04700
C926        C  0.08238714  0.65150476  0.63180187    -0.03860
Br927      Br  0.12817869  0.67839623  0.64970817    -0.03550
H928        H  0.10146901  0.58947446  0.64269677     0.08610
H929        H  0.99312973  0.67262841  0.59887081     0.06630
Br930      Br  0.96718864  0.58871645  0.58757046    -0.03980
C931        C  0.95696559  0.15429451  0.64367053    -0.10620
C932        C  0.98002653  0.17482459  0.62447748     0.05580
C933        C  0.00119557  0.15118334  0.60555145    -0.04380
C934        C  0.00155411  0.10751943  0.60704751    -0.08830
C935        C  0.98116590  0.08650791  0.62716496     0.04700
C936        C  0.95706799  0.11017023  0.64508611    -0.03860
Br937      Br  0.92686211  0.08512873  0.67309525    -0.03550
H938        H  0.94042458  0.17263718  0.65819617     0.08610
H939        H  0.01947376  0.08993138  0.59298931     0.06630
Br940      Br  0.03238911  0.17731913  0.57821878    -0.03980
C941        C  0.78649992  0.34896896  0.60535311    -0.10620
C942        C  0.80933105  0.33348439  0.62609288     0.05580
C943        C  0.78915258  0.30920513  0.64495179    -0.04380
C944        C  0.74553403  0.30321559  0.64377192    -0.08830
C945        C  0.72244879  0.32046528  0.62356526     0.04700
C946        C  0.74327401  0.34268856  0.60397018    -0.03860
Br947      Br  0.71341581  0.36896945  0.57641633    -0.03550
H948        H  0.80218531  0.36731441  0.59065786     0.08610
H949        H  0.72946353  0.28696049  0.65920091     0.06630
Br950      Br  0.81976989  0.28540621  0.67289275    -0.03980
C951        C  0.24529241  0.44228857  0.63998289    -0.10620
C952        C  0.22252244  0.41529070  0.62316350     0.05580
C953        C  0.24550491  0.39199526  0.60445372    -0.04380
C954        C  0.28945971  0.39253768  0.60474652    -0.08830
C955        C  0.31253467  0.41634428  0.62301813     0.04700
C956        C  0.28976732  0.44342106  0.63984946    -0.03860
Br957      Br  0.31673283  0.48196363  0.66341889    -0.03550
H958        H  0.22855294  0.46146733  0.65399196     0.08610
H959        H  0.30578109  0.37287786  0.59078242     0.06630
Br960      Br  0.21971927  0.35824518  0.57755715    -0.03980
C961        C  0.69270864  0.86013501  0.73888506    -0.10620
C962        C  0.67455010  0.88680441  0.75761525     0.05580
C963        C  0.63227338  0.89847499  0.75445764    -0.04380
C964        C  0.60814092  0.88025819  0.73429030    -0.08830
C965        C  0.62549081  0.84975133  0.71740258     0.04700
C966        C  0.66849141  0.84014933  0.71986340    -0.03860
Br967      Br  0.69484282  0.79465789  0.70114128    -0.03550
H968        H  0.72483546  0.84982046  0.74138699     0.08610
H969        H  0.57548963  0.88898297  0.73232409     0.06630
Br970      Br  0.60554554  0.93611619  0.77846763    -0.03980
C971        C  0.84089025  0.76134641  0.74214072    -0.10620
C972        C  0.84623662  0.78337255  0.76566881     0.05580
C973        C  0.87769470  0.81491071  0.76715179    -0.04380
C974        C  0.90377604  0.82290435  0.74603680    -0.08830
C975        C  0.89921587  0.80090556  0.72243747     0.04700
C976        C  0.86684473  0.76985534  0.72059913    -0.03860
Br977      Br  0.85501272  0.73912884  0.68928433    -0.03550
H978        H  0.81666822  0.73722862  0.74054764     0.08610
H979        H  0.92746835  0.84747570  0.74808684     0.06630
Br980      Br  0.88450197  0.85102105  0.79685807    -0.03980
C981        C  0.62464224  0.33995746  0.77097485    -0.10620
C982        C  0.66708589  0.32952853  0.76657020     0.05580
C983        C  0.68510625  0.34063327  0.74267629    -0.04380
C984        C  0.66109184  0.36161884  0.72420443    -0.08830
C985        C  0.61859215  0.37208504  0.72852999     0.04700
C986        C  0.60054191  0.36094282  0.75248858    -0.03860
Br987      Br  0.54361261  0.37382932  0.76185737    -0.03550
H988        H  0.60999754  0.33230626  0.78920936     0.08610
H989        H  0.67591245  0.36914812  0.70601055     0.06630
Br990      Br  0.74161031  0.32623191  0.73322709    -0.03980
C991        C  0.90315820  0.43403368  0.77992163    -0.10620
C992        C  0.85942979  0.43304487  0.77631246     0.05580
C993        C  0.84330393  0.43824748  0.75144656    -0.04380
C994        C  0.87063841  0.44181317  0.73044395    -0.08830
C995        C  0.91464245  0.43981092  0.73350291     0.04700
C996        C  0.93084777  0.43762645  0.75886962    -0.03860
Br997      Br  0.98986610  0.43798443  0.76640153    -0.03550
H998        H  0.91588010  0.42959335  0.79904683     0.08610
H999        H  0.85699358  0.44448626  0.71143388     0.06630
Br1000     Br  0.78388696  0.43865269  0.74519547    -0.03980
C1001       C  0.66921441  0.57470474  0.87648590    -0.10620
C1002       C  0.70336997  0.54982500  0.88360652     0.05580
C1003       C  0.73909273  0.56964129  0.89469610    -0.04380
C1004       C  0.74124592  0.61325011  0.89690953    -0.08830
C1005       C  0.70944736  0.63873934  0.88712232     0.04700
C1006       C  0.67200761  0.61903295  0.87800431    -0.03860
Br1007     Br  0.62433863  0.65017646  0.86656449    -0.03550
H1008       H  0.64140781  0.55983029  0.86828908     0.08610
H1009       H  0.76978307  0.62720988  0.90474502     0.06630
Br1010     Br  0.78820364  0.53977546  0.90550154    -0.03980
C1011       C  0.76791387  0.11118739  0.87869073    -0.10620
C1012       C  0.80024339  0.13847094  0.87071343     0.05580
C1013       C  0.83880799  0.12039748  0.86266136    -0.04380
C1014       C  0.84267345  0.07606128  0.86079458    -0.08830
C1015       C  0.80866007  0.04932700  0.86684441     0.04700
C1016       C  0.77153902  0.06761858  0.87672393    -0.03860
Br1017     Br  0.72362223  0.03537983  0.88802234    -0.03550
H1018       H  0.73844661  0.12365644  0.88580158     0.08610
H1019       H  0.87171528  0.06257030  0.85373167     0.06630
Br1020     Br  0.88710772  0.15399227  0.85407310    -0.03980
C1021       C  0.11981315  0.95913758  0.77981913    -0.10620
C1022       C  0.16392458  0.95602573  0.77770795     0.05580
C1023       C  0.18092783  0.94974052  0.75276324    -0.04380
C1024       C  0.15457893  0.94307623  0.73154004    -0.08830
C1025       C  0.11059968  0.94410614  0.73373331     0.04700
C1026       C  0.09320607  0.95339284  0.75825306    -0.03860
Br1027     Br  0.03397098  0.96060259  0.76351424    -0.03550
H1028       H  0.10573691  0.96589329  0.79843153     0.08610
H1029       H  0.16907451  0.93751120  0.71289141     0.06630
Br1030     Br  0.23954535  0.95288598  0.74506215    -0.03980
C1031       C  0.33650646  0.88718520  0.74458746    -0.10620
C1032       C  0.34293377  0.85018772  0.75895386     0.05580
C1033       C  0.37887102  0.82641975  0.75373121    -0.04380
C1034       C  0.40798073  0.84109642  0.73567087    -0.08830
C1035       C  0.40284045  0.87992665  0.72272061     0.04700
C1036       C  0.36661846  0.90316924  0.72768531    -0.03860
Br1037     Br  0.35914401  0.95932340  0.71535190    -0.03550
H1038       H  0.30987957  0.90648103  0.74866875     0.08610
H1039       H  0.43540357  0.82189066  0.73227362     0.06630
Br1040     Br  0.39179804  0.77558155  0.77152330    -0.03980
C1041       C  0.49591156  0.90544350  0.87095143    -0.10620
C1042       C  0.46912655  0.87060069  0.86754164     0.05580
C1043       C  0.48734681  0.83012931  0.86419958    -0.04380
C1044       C  0.53087529  0.82520474  0.86586189    -0.08830
C1045       C  0.55772708  0.85971835  0.87025241     0.04700
C1046       C  0.53969471  0.90060642  0.87215481    -0.03860
Br1047     Br  0.57184441  0.95206567  0.87527731    -0.03550
H1048       H  0.48270037  0.93666525  0.87299486     0.08610
H1049       H  0.54383094  0.79392427  0.86350765     0.06630
Br1050     Br  0.45582043  0.77978749  0.85558608    -0.03980
C1051       C  0.99871004  0.85624414  0.83754190    -0.10620
C1052       C  0.97450613  0.84169757  0.85811817     0.05580
C1053       C  0.99292185  0.83292647  0.88198746    -0.04380
C1054       C  0.03529759  0.84080120  0.88543440    -0.08830
C1055       C  0.05932837  0.85736466  0.86536679     0.04700
C1056       C  0.04155450  0.86359529  0.84100514    -0.03860
Br1057     Br  0.07489624  0.87923492  0.81196940    -0.03550
H1058       H  0.98421374  0.86263159  0.81913888     0.08610
H1059       H  0.04924442  0.83530812  0.90413092     0.06630
Br1060     Br  0.96102238  0.81303606  0.91099948    -0.03980
C1061       C  0.10392357  0.29826367  0.77810589    -0.10620
C1062       C  0.14624951  0.28634644  0.77632817     0.05580
C1063       C  0.16355388  0.27697862  0.75177828    -0.04380
C1064       C  0.13960612  0.28318822  0.72965129    -0.08830
C1065       C  0.09886285  0.29923573  0.73148571     0.04700
C1066       C  0.08035600  0.30511937  0.75588603    -0.03860
Br1067     Br  0.02344269  0.32359103  0.75971187    -0.03550
H1068       H  0.08983439  0.30492230  0.79674143     0.08610
H1069       H  0.15399195  0.27832173  0.71089198     0.06630
Br1070     Br  0.21996550  0.25721233  0.74678895    -0.03980
C1071       C  0.37884022  0.32529229  0.74438579    -0.10620
C1072       C  0.39012394  0.35049465  0.72377205     0.05580
C1073       C  0.37913868  0.39393858  0.72459514    -0.04380
C1074       C  0.35517318  0.41047705  0.74490449    -0.08830
C1075       C  0.34351996  0.38511845  0.76535164     0.04700
C1076       C  0.35667014  0.34224455  0.76530779    -0.03860
Br1077     Br  0.34818307  0.30512775  0.79387589    -0.03550
H1078       H  0.38951905  0.29298974  0.74497196     0.08610
H1079       H  0.34557105  0.44314401  0.74468030     0.06630
Br1080     Br  0.39830821  0.43376124  0.69973333    -0.03980
C1081       C  0.46814047  0.31913260  0.86293032    -0.10620
C1082       C  0.45109299  0.35958108  0.86196616     0.05580
C1083       C  0.47776162  0.39497350  0.85885157    -0.04380
C1084       C  0.52083219  0.38919911  0.85750310    -0.08830
C1085       C  0.53791616  0.34894850  0.85925382     0.04700
C1086       C  0.51134543  0.31346594  0.86184642    -0.03860
Br1087     Br  0.53138247  0.25719152  0.86667917    -0.03550
H1088       H  0.44781873  0.29185935  0.86535066     0.08610
H1089       H  0.54126746  0.41651244  0.85552470     0.06630
Br1090     Br  0.45856265  0.45192303  0.85544876    -0.03980
C1091       C  0.02272724  0.32959401  0.88867068    -0.10620
C1092       C  0.03910184  0.37011429  0.88375940     0.05580
C1093       C  0.01165717  0.40325306  0.87872614    -0.04380
C1094       C  0.96842725  0.39526438  0.87847388    -0.08830
C1095       C  0.95228480  0.35444568  0.88278863     0.04700
C1096       C  0.97970395  0.32152711  0.88808437    -0.03860
Br1097     Br  0.96001739  0.26566891  0.89557567    -0.03550
H1098       H  0.04358288  0.30377921  0.89282209     0.08610
H1099       H  0.94737617  0.42081270  0.87409835     0.06630
Br1100     Br  0.03152894  0.45849902  0.86992190    -0.03980
C1101       C  0.24552442  0.60433330  0.87680624    -0.10620
C1102       C  0.20839255  0.58238738  0.87044814     0.05580
C1103       C  0.17231653  0.60572892  0.86438068    -0.04380
C1104       C  0.17447857  0.65023512  0.86375940    -0.08830
C1105       C  0.21241860  0.67192553  0.86902307     0.04700
C1106       C  0.24775638  0.64832662  0.87636187    -0.03860
Br1107     Br  0.29996287  0.67421388  0.88687426    -0.03550
H1108       H  0.27335086  0.58699341  0.88202501     0.08610
H1109       H  0.14694017  0.66777028  0.85830043     0.06630
Br1110     Br  0.12069811  0.57801153  0.85501284    -0.03980
C1111       C  0.28991014  0.15371275  0.91024876    -0.10620
C1112       C  0.30858831  0.17412057  0.88929846     0.05580
C1113       C  0.33499105  0.15065000  0.87254324    -0.04380
C1114       C  0.33702403  0.10674962  0.87495083    -0.08830
C1115       C  0.31317339  0.08585187  0.89374632     0.04700
C1116       C  0.29184430  0.11013506  0.91259798    -0.03860
Br1117     Br  0.26151907  0.08607426  0.94093493    -0.03550
H1118       H  0.27104988  0.17138648  0.92399202     0.08610
H1119       H  0.35440339  0.08872443  0.86066052     0.06630
Br1120     Br  0.36568056  0.17503902  0.84445038    -0.03980
C1121       C  0.76126301  0.50420779  0.97442043    -0.10620
C1122       C  0.76563343  0.46093794  0.97875089     0.05580
C1123       C  0.75401896  0.44469406  0.00281637    -0.04380
C1124       C  0.73905086  0.47160187  0.02212227    -0.08830
C1125       C  0.73700933  0.51528031  0.01841501     0.04700
C1126       C  0.74737385  0.53147270  0.99408998    -0.03860
Br1127     Br  0.74664487  0.59080181  0.98761038    -0.03550
H1128       H  0.76798437  0.51674693  0.95566142     0.08610
H1129       H  0.73310691  0.45888846  0.04107765     0.06630
Br1130     Br  0.76066284  0.38614060  0.01072324    -0.03980
C1131       C  0.87430568  0.69684108  0.00019211    -0.10620
C1132       C  0.86285140  0.71687936  0.02339518     0.05580
C1133       C  0.85183017  0.76006706  0.02259526    -0.04380
C1134       C  0.84807344  0.78073848  0.99892146    -0.08830
C1135       C  0.85531263  0.75946121  0.97544053     0.04700
C1136       C  0.87100385  0.71764225  0.97646169    -0.03860
Br1137     Br  0.88869767  0.68660020  0.94632822    -0.03550
H1138       H  0.88333221  0.66401344  0.00025933     0.08610
H1139       H  0.83740823  0.81305317  0.99889423     0.06630
Br1140     Br  0.83994326  0.79230715  0.05336320    -0.03980
C1141       C  0.63119955  0.51828648  0.25208229    -0.10620
C1142       C  0.65179848  0.52790711  0.27542787     0.05580
C1143       C  0.69649681  0.53189402  0.27490287    -0.04380
C1144       C  0.71861083  0.52808298  0.25163371    -0.08830
C1145       C  0.69761751  0.52169159  0.22829679     0.04700
C1146       C  0.65365949  0.51553192  0.22873873    -0.03860
Br1147     Br  0.62298053  0.50476160  0.19758815    -0.03550
H1148       H  0.59736016  0.51430283  0.25177640     0.08610
H1149       H  0.75219555  0.53425207  0.25150568     0.06630
Br1150     Br  0.73068056  0.54729651  0.30404110    -0.03980
C1151       C  0.91193552  0.66108156  0.27784306    -0.10620
C1152       C  0.91363458  0.61852280  0.28544929     0.05580
C1153       C  0.88175329  0.59065902  0.27699758    -0.04380
C1154       C  0.85238015  0.60435485  0.25885663    -0.08830
C1155       C  0.85478565  0.64529231  0.24860918     0.04700
C1156       C  0.88308118  0.67439394  0.25950513    -0.03860
Br1157     Br  0.88764560  0.73076229  0.24693945    -0.03550
H1158       H  0.93484520  0.68386000  0.28497639     0.08610
H1159       H  0.83090910  0.58136487  0.25033318     0.06630
Br1160     Br  0.88039014  0.53255469  0.28660850    -0.03980
C1161       C  0.71914674  0.96904186  0.98539186    -0.10620
C1162       C  0.74282928  0.98153762  0.96434025     0.05580
C1163       C  0.77496055  0.01214105  0.96784932    -0.04380
C1164       C  0.78351904  0.02900656  0.99248876    -0.08830
C1165       C  0.76153146  0.01446513  0.01409657     0.04700
C1166       C  0.72853519  0.98397359  0.01010899    -0.03860
Br1167     Br  0.69577405  0.95700309  0.03667354    -0.03550
H1168       H  0.69577222  0.94419068  0.98294103     0.08610
H1169       H  0.80824751  0.05244880  0.99481562     0.06630
Br1170     Br  0.80994525  0.02948986  0.93972049    -0.03980
C1171       C  0.68796096  0.26519650  0.99693557    -0.10620
C1172       C  0.67594082  0.24313585  0.97439574     0.05580
C1173       C  0.66167375  0.20088193  0.97687599    -0.04380
C1174       C  0.66259163  0.18106539  0.00109542    -0.08830
C1175       C  0.67747544  0.20258516  0.02321171     0.04700
C1176       C  0.68895765  0.24558438  0.02092658    -0.03860
Br1177     Br  0.70750454  0.27946178  0.04990849    -0.03550
H1178       H  0.69818896  0.29779088  0.99586002     0.08610
H1179       H  0.65370940  0.14811970  0.00233075     0.06630
Br1180     Br  0.64006038  0.16865553  0.94816991    -0.03980
C1181       C  0.76723428  0.88995064  0.12959796    -0.10620
C1182       C  0.72593611  0.90414138  0.13356713     0.05580
C1183       C  0.69398405  0.87390473  0.13784384    -0.04380
C1184       C  0.70346164  0.83060914  0.13805784    -0.08830
C1185       C  0.74468996  0.81639285  0.13393555     0.04700
C1186       C  0.77668405  0.84660992  0.12970625    -0.03860
Br1187     Br  0.83391341  0.82997245  0.12470749    -0.03550
H1188       H  0.79229471  0.91267652  0.12649974     0.08610
H1189       H  0.67837234  0.80788854  0.14110238     0.06630
Br1190     Br  0.63677833  0.89043752  0.14306144    -0.03980
C1191       C  0.77445608  0.33700695  0.11184653    -0.10620
C1192       C  0.80424587  0.31179305  0.12423449     0.05580
C1193       C  0.84083530  0.33168979  0.13412886    -0.04380
C1194       C  0.84629390  0.37574005  0.13244910    -0.08830
C1195       C  0.81621669  0.40107283  0.12045739     0.04700
C1196       C  0.77999054  0.38111738  0.11012332    -0.03860
Br1197     Br  0.73573152  0.41331533  0.09531514    -0.03550
H1198       H  0.74618953  0.32247690  0.10403162     0.08610
H1199       H  0.87435315  0.39031496  0.14052595     0.06630
Br1200     Br  0.88552264  0.29963010  0.14866198    -0.03980
C1201       C  0.69929757  0.08985514  0.25437762    -0.10620
C1202       C  0.70605884  0.13394106  0.25311479     0.05580
C1203       C  0.69380346  0.15911302  0.27420554    -0.04380
C1204       C  0.67182726  0.14074320  0.29476381    -0.08830
C1205       C  0.65981949  0.09770158  0.29403567     0.04700
C1206       C  0.67525381  0.07192156  0.27414153    -0.03860
Br1207     Br  0.65706685  0.01427135  0.27054181    -0.03550
H1208       H  0.70782160  0.06995384  0.23805780     0.08610
H1209       H  0.65959276  0.16120498  0.30987389     0.06630
Br1210     Br  0.69969481  0.21922936  0.27354125    -0.03980
C1211       C  0.88873343  0.04703472  0.23845488    -0.10620
C1212       C  0.84525369  0.03819538  0.23947584     0.05580
C1213       C  0.82749477  0.03004435  0.26394411    -0.04380
C1214       C  0.85155864  0.03684029  0.28659163    -0.08830
C1215       C  0.89353646  0.05121803  0.28527839     0.04700
C1216       C  0.91257464  0.05379247  0.26081664    -0.03860
Br1217     Br  0.97095177  0.06825794  0.25670759    -0.03550
H1218       H  0.90390399  0.05183715  0.21998820     0.08610
H1219       H  0.83657977  0.03355680  0.30523630     0.06630
Br1220     Br  0.77061447  0.01171946  0.26784785    -0.03980
C1221       C  0.35460678  0.56225007  0.98831190    -0.10620
C1222       C  0.35954386  0.54107540  0.01172941     0.05580
C1223       C  0.35751847  0.49648125  0.01121867    -0.04380
C1224       C  0.34565005  0.47446809  0.98870366    -0.08830
C1225       C  0.33700231  0.49576986  0.96591198     0.04700
C1226       C  0.34372181  0.53989634  0.96546062    -0.03860
Br1227     Br  0.33321309  0.57149498  0.93496370    -0.03550
H1228       H  0.35524664  0.59638688  0.98822604     0.08610
H1229       H  0.34138602  0.44057153  0.98932301     0.06630
Br1230     Br  0.36696715  0.46410859  0.04162722    -0.03980
C1231       C  0.27952105  0.74833341  0.00849284    -0.10620
C1232       C  0.26387283  0.70656135  0.00755096     0.05580
C1233       C  0.27098276  0.68249393  0.98483884    -0.04380
C1234       C  0.29105542  0.70152651  0.96352199    -0.08830
C1235       C  0.30712664  0.74312618  0.96532133     0.04700
C1236       C  0.30400959  0.76475503  0.98899735    -0.03860
Br1237     Br  0.32587857  0.82117975  0.99394486    -0.03550
H1238       H  0.27483788  0.76821631  0.02543411     0.08610
H1239       H  0.29176014  0.68481949  0.94518807     0.06630
Br1240     Br  0.25314052  0.62486979  0.98159859    -0.03980
C1241       C  0.51363342  0.61288457  0.13051969    -0.10620
C1242       C  0.49879387  0.65189831  0.12226416     0.05580
C1243       C  0.52746682  0.68279300  0.11391461    -0.04380
C1244       C  0.57048384  0.67440714  0.11387072    -0.08830
C1245       C  0.58542078  0.63552925  0.12223187     0.04700
C1246       C  0.55676571  0.60447625  0.13042074    -0.03860
Br1247     Br  0.57507451  0.54965557  0.14012965    -0.03550
H1248       H  0.49161970  0.58879466  0.13670844     0.08610
H1249       H  0.59243580  0.69865099  0.10781010     0.06630
Br1250     Br  0.50937412  0.73750597  0.10364726    -0.03980
C1251       C  0.02380233  0.57279147  0.11107865    -0.10620
C1252       C  0.00241101  0.59494893  0.13063638     0.05580
C1253       C  0.02582696  0.61829957  0.14904522    -0.04380
C1254       C  0.06986787  0.61949608  0.14737832    -0.08830
C1255       C  0.09118155  0.59780233  0.12750462     0.04700
C1256       C  0.06764428  0.57356975  0.10953587    -0.03860
Br1257     Br  0.09322120  0.53804175  0.08371772    -0.03550
H1258       H  0.00625956  0.55402821  0.09708263     0.08610
H1259       H  0.08749827  0.63810725  0.16140691     0.06630
Br1260     Br  0.99929572  0.65136771  0.17561932    -0.03980
C1261       C  0.22835870  0.69288423  0.25625319    -0.10620
C1262       C  0.20872048  0.70728226  0.23392571     0.05580
C1263       C  0.16628608  0.71904749  0.23520503    -0.04380
C1264       C  0.14368496  0.71483296  0.25825502    -0.08830
C1265       C  0.16253389  0.69820624  0.28034907     0.04700
C1266       C  0.20575315  0.68787556  0.27926935    -0.03860
Br1267     Br  0.23474566  0.66131876  0.30702406    -0.03550
H1268       H  0.26048043  0.68188640  0.25516800     0.08610
H1269       H  0.11081022  0.72336818  0.25861614     0.06630
Br1270     Br  0.13736498  0.73832482  0.20526249    -0.03980
C1271       C  0.45714506  0.61414962  0.25403908    -0.10620
C1272       C  0.43700564  0.62919390  0.27639284     0.05580
C1273       C  0.39279437  0.62648606  0.27796486    -0.04380
C1274       C  0.36976301  0.60964409  0.25702841    -0.08830
C1275       C  0.39043091  0.59421868  0.23486789     0.04700
C1276       C  0.43455348  0.59591400  0.23384127    -0.03860
Br1277     Br  0.46546400  0.57567362  0.20430372    -0.03550
H1278       H  0.49119361  0.61435879  0.25289941     0.08610
H1279       H  0.33573619  0.61052767  0.25753558     0.06630
Br1280     Br  0.36273424  0.64380024  0.30834047    -0.03980
C1281       C  0.28082849  0.96600801  0.02922948    -0.10620
C1282       C  0.30251058  0.00416485  0.02487293     0.05580
C1283       C  0.31041050  0.01588382  0.99930869    -0.04380
C1284       C  0.29354304  0.99195165  0.97877101    -0.08830
C1285       C  0.26819495  0.95608297  0.98313452     0.04700
C1286       C  0.26369260  0.94198825  0.00867390    -0.03860
Br1287     Br  0.22942105  0.89401457  0.01698977    -0.03550
H1288       H  0.27326035  0.95720556  0.04882194     0.08610
H1289       H  0.29857684  0.00269834  0.95927849     0.06630
Br1290     Br  0.34014580  0.06719171  0.99191068    -0.03980
C1291       C  0.20611689  0.23677981  0.97792548    -0.10620
C1292       C  0.20928417  0.28088974  0.98219509     0.05580
C1293       C  0.20983696  0.29643224  0.00767893    -0.04860
C1294       C  0.20609006  0.26810742  0.02797959    -0.08830
C1295       C  0.20160180  0.22417787  0.02351218     0.04700
C1296       C  0.20191171  0.20865001  0.99807093    -0.03860
Br1297     Br  0.19434160  0.15011647  0.98898384    -0.03550
H1298       H  0.20588577  0.22348821  0.95856822     0.08610
H1299       H  0.20647505  0.28084441  0.04747617     0.06630
Br1300     Br  0.21521958  0.35526857  0.01626301    -0.03980
C1301       C  0.29498952  0.90882667  0.12794836    -0.10620
C1302       C  0.25311809  0.91993496  0.12233673     0.05580
C1303       C  0.22497874  0.88789602  0.11400926    -0.04380
C1304       C  0.23886985  0.84587876  0.11225663    -0.08830
C1305       C  0.28043740  0.83561068  0.11870152     0.04700
C1306       C  0.30856844  0.86751099  0.12623013    -0.03860
Br1307     Br  0.36636087  0.85628990  0.13418914    -0.03550
H1308       H  0.31804021  0.93239766  0.13378315     0.08610
H1309       H  0.21697327  0.82110598  0.10655992     0.06630
Br1310     Br  0.16739541  0.89912894  0.10619025    -0.03980
C1311       C  0.31165951  0.35931760  0.11954753    -0.10620
C1312       C  0.27237434  0.34047457  0.12439532     0.05580
C1313       C  0.23777040  0.36612467  0.13095476    -0.04380
C1314       C  0.24288067  0.40970508  0.13217464    -0.08830
C1315       C  0.28177563  0.42838621  0.12686501     0.04700
C1316       C  0.31641247  0.40320389  0.12045320    -0.03860
Br1317     Br  0.37048274  0.42752424  0.11326477    -0.03550
H1318       H  0.33851231  0.33991312  0.11481771     0.08610
H1319       H  0.21618216  0.42924563  0.13708974     0.06630
Br1320     Br  0.18329506  0.34421966  0.14011495    -0.03980
C1321       C  0.53367836  0.16734731  0.13270456    -0.10620
C1322       C  0.54561911  0.12681852  0.14034426     0.05580
C1323       C  0.51443769  0.09676264  0.14598205    -0.04380
C1324       C  0.47215936  0.10691422  0.14318400    -0.08830
C1325       C  0.45991578  0.14683041  0.13463098     0.04700
C1326       C  0.49099516  0.17766923  0.13010139    -0.03860
Br1327     Br  0.47669026  0.23267659  0.11842505    -0.03550
H1328       H  0.55758915  0.19053174  0.12799775     0.08610
H1329       H  0.44863526  0.08277804  0.14681543     0.06630
Br1330     Br  0.52809739  0.04001075  0.15490430    -0.03980
C1331       C  0.01869382  0.06853302  0.13628246    -0.10620
C1332       C  0.04163124  0.09907957  0.12284679     0.05580
C1333       C  0.02028915  0.12870187  0.10784390    -0.04380
C1334       C  0.97656446  0.12800625  0.10689135    -0.08830
C1335       C  0.95346774  0.09896428  0.12130591     0.04700
C1336       C  0.97464430  0.06866452  0.13587974    -0.03860
Br1337     Br  0.94471604  0.02706549  0.15533542    -0.03550
H1338       H  0.03495210  0.04568920  0.14783175     0.08610
H1339       H  0.96048498  0.15164914  0.09584393     0.06630
Br1340     Br  0.04918519  0.17159183  0.08872297    -0.03980
C1341       C  0.16932862  0.19321109  0.25213283    -0.10620
C1342       C  0.15193644  0.18048220  0.22860888     0.05580
C1343       C  0.10895428  0.16786657  0.22771710    -0.04380
C1344       C  0.08474639  0.16810925  0.25024165    -0.08830
C1345       C  0.10228881  0.18062120  0.27382580     0.04700
C1346       C  0.14514938  0.19400911  0.27453788    -0.03860
Br1347     Br  0.17360020  0.21612900  0.30467625    -0.03550
H1348       H  0.20181322  0.20374108  0.25302206     0.08610
H1349       H  0.05232769  0.15739680  0.24940392     0.06630
Br1350     Br  0.08099126  0.14752325  0.19709375    -0.03980
C1351       C  0.41044264  0.08605652  0.22648034    -0.10620
C1352       C  0.36663070  0.08143490  0.22914723     0.05580
C1353       C  0.34856261  0.08729760  0.25363347    -0.04380
C1354       C  0.37323514  0.10107586  0.27432897    -0.08830
C1355       C  0.41647984  0.11001522  0.27140237     0.04700
C1356       C  0.43553623  0.10002945  0.24740053    -0.03860
Br1357     Br  0.49455949  0.10741136  0.24122895    -0.03550
H1358       H  0.42467706  0.08243518  0.20758656     0.08610
H1359       H  0.35758906  0.10681428  0.29259618     0.06630
Br1360     Br  0.28899851  0.08164392  0.25906177    -0.03980
loop_ 
_geom_bond_atom_site_label_1 
_geom_bond_atom_site_label_2 
_geom_bond_distance 
_geom_bond_site_symmetry_2 
_ccdc_geom_bond_type 
N1            N2   1.310       .  A
N1            N7   1.312       .  A
N1          Mn30   2.125       .  S
N2            C9   1.338       .  A
N3            N5   1.313       .  A
N3            N4   1.320       .  A
N3          Mn19   2.188       .  S
N4           C10   1.352       .  A
N5            N6   1.316       .  A
N5          Mn30   2.182       .  S
N6           C10   1.349       .  A
N7            N8   1.326       .  A
N7          Mn19   2.246       .  S
N8            C9   1.364       .  A
C9         C1342   1.475       .  S
C10        C1312   1.468       .  S
N11          N17   1.322       .  A
N11          N12   1.313       .  A
N11         Mn41   2.176       .  S
N12          C20   1.344       .  A
N13          N14   1.311       .  A
N13          N15   1.315       .  A
N13         Mn19   2.144       .  S
N14          C21   1.341       .  A
N15          N16   1.330       .  A
N15         Mn41   2.247       .  S
N16          C21   1.361       .  A
N17          N18   1.329       .  A
N17         Mn19   2.255       .  S
N18          C20   1.360       .  A
Mn19        Cl43   2.541       .  S
C20        C1325   1.479       .  S
C21        C1352   1.474       .  S
N22          N23   1.309       .  A
N22          N28   1.312       .  A
N22         Mn30   2.123       .  S
N23          C31   1.340       .  A
N24          N26   1.314       .  A
N24          N25   1.323       .  A
N24         Mn42   2.200       .  S
N25          C32   1.354       .  A
N26          N27   1.315       .  A
N26         Mn30   2.178       .  S
N27          C32   1.347       .  A
N28          N29   1.325       .  A
N28         Mn42   2.241       .  S
N29          C31   1.363       .  A
Mn30        Cl43   2.529       .  S
C31        C1295   1.476       .  S
C32        C1332   1.465       .  S
N33          N34   1.306   1_545  A
N33          N39   1.319       .  A
N33         Mn41   2.157       .  S
N34          C44   1.340       .  A
N35          N36   1.312       .  A
N35          N37   1.317       .  A
N35         Mn42   2.146       .  S
N36          C45   1.339       .  A
N37          N38   1.332       .  A
N37         Mn41   2.263       .  S
N38          C45   1.363       .  A
N39          N40   1.332   1_545  A
N39         Mn42   2.261       .  S
N40          C44   1.365       .  A
Mn41        Cl43   2.515       .  S
Mn42        Cl43   2.545       .  S
C44        C1302   1.489       .  S
C45        C1282   1.478       .  S
N46          N47   1.317       .  A
N46          N52   1.317       .  A
N46         Mn75   2.196       .  S
N47          C54   1.348       .  A
N48          N50   1.319       .  A
N48          N49   1.321       .  A
N48         Mn64   2.209       .  S
N49          C55   1.351       .  A
N50          N51   1.321       .  A
N50         Mn75   2.211       .  S
N51          C55   1.355       .  A
N52          N53   1.319       .  A
N52         Mn64   2.192       .  S
N53          C54   1.352       .  A
C54        C1315   1.457       .  S
C55        C1255   1.480       .  S
N56          N62   1.316       .  A
N56          N57   1.328       .  A
N56         Mn86   2.240       .  S
N57          C65   1.361       .  A
N58          N59   1.330       .  A
N58          N60   1.314       .  A
N58         Mn64   2.243       .  S
N59          C66   1.364       .  A
N60          N61   1.303       .  A
N60         Mn86   2.121       .  S
N61          C66   1.333       .  A
N62          N63   1.314       .  A
N62         Mn64   2.166       .  S
N63          C65   1.343       .  A
Mn64        Cl88   2.537       .  S
C65        C1262   1.472       .  S
C66        C1275   1.458       .  S
N67          N68   1.337       .  A
N67          N73   1.310       .  A
N67         Mn75   2.254       .  S
N68          C76   1.370       .  A
N69          N71   1.314       .  A
N69          N70   1.336       .  A
N69         Mn87   2.287       .  S
N70          C77   1.370       .  A
N71          N72   1.310       .  A
N71         Mn75   2.139       .  S
N72          C77   1.340       .  A
N73          N74   1.295       .  A
N73         Mn87   2.125       .  S
N74          C76   1.329       .  A
Mn75        Cl88   2.551       .  S
C76        C1232   1.490       .  S
C77        C1222   1.491       .  S
N78          N79   1.321       .  A
N78          N84   1.314       .  A
N78         Mn86   2.216       .  S
N79          C89   1.352       .  A
N80          N81   1.323       .  A
N80          N82   1.311       .  A
N80         Mn87   2.207       .  S
N81          C90   1.351       .  A
N82          N83   1.318       .  A
N82         Mn86   2.165       .  S
N83          C90   1.350       .  A
N84          N85   1.320       .  A
N84         Mn87   2.182       .  S
N85          C89   1.352       .  A
Mn86        Cl88   2.529       .  S
Mn87        Cl88   2.503       .  S
C89        C1242   1.467       .  S
C90        C1305   1.465       .  S
N91          N92   1.319       .  A
N91          N97   1.317       .  A
N91        Mn120   2.204       .  S
N92          C99   1.349       .  A
N93          N95   1.322       .  A
N93          N94   1.326       .  A
N93        Mn109   2.239       .  S
N94         C100   1.354       .  A
N95          N96   1.328       .  A
N95        Mn120   2.249       .  S
N96         C100   1.361       .  A
N97          N98   1.320       .  A
N97        Mn109   2.195       .  S
N98          C99   1.353       .  A
C99        C1335   1.465       .  S
C100       C1192   1.501       .  S
N101        N107   1.316       .  A
N101        N102   1.335       .  A
N101       Mn131   2.284       .  S
N102        C110   1.369       .  A
N103        N104   1.336       .  A
N103        N105   1.313       .  A
N103       Mn109   2.267       .  S
N104        C111   1.371       .  A
N105        N106   1.301       .  A
N105       Mn131   2.118       .  S
N106        C111   1.327       .  A
N107        N108   1.312       .  A
N107       Mn109   2.151       .  S
N108        C110   1.342       .  A
Mn109      Cl133   2.556       .  S
C110       C1175   1.494       .  S
C111       C1165   1.490       .  S
N112        N113   1.334       .  A
N112        N118   1.320       .  A
N112       Mn120   2.261       .  S
N113        C121   1.364       .  A
N114        N116   1.315       .  A
N114        N115   1.337       .  A
N114       Mn132   2.286       .  S
N115        C122   1.370       .  A
N116        N117   1.312       .  A
N116       Mn120   2.156       .  S
N117        C122   1.343       .  A
N118        N119   1.308       .  A
N118       Mn132   2.164       .  S
N119        C121   1.335       .  A
Mn120      Cl133   2.539       .  S
C121       C1202   1.485       .  S
C122       C1212   1.504       .  S
N123        N124   1.328   1_545  A
N123        N129   1.315       .  A
N123       Mn131   2.250       .  S
N124        C134   1.358       .  A
N125        N126   1.324       .  A
N125        N127   1.313       .  A
N125       Mn132   2.230       .  S
N126        C135   1.356       .  A
N127        N128   1.319       .  A
N127       Mn131   2.167       .  S
N128        C135   1.349       .  A
N129        N130   1.325   1_545  A
N129       Mn132   2.205       .  S
N130        C134   1.355       .  A
Mn131      Cl133   2.526       .  S
Mn132      Cl133   2.539       .  S
C134       C1182   1.495       .  S
C135       C1322   1.472       .  S
N136        N137   1.313       .  A
N136        N142   1.317       .  A
N136       Mn165   2.160       .  S
N137        C144   1.341       .  A
N138        N140   1.314       .  A
N138        N139   1.302       .  A
N138       Mn154   2.113       .  S
N139        C145   1.333       .  A
N140        N141   1.331       .  A
N140       Mn165   2.249       .  S
N141        C145   1.365       .  A
N142        N143   1.336       .  A
N142       Mn154   2.288       .  S
N143        C144   1.371       .  A
C144       C1132   1.497       .  S
C145       C1125   1.458       .  S
N146        N152   1.315       .  A
N146        N147   1.323       .  A
N146       Mn176   2.190       .  S
N147        C155   1.351       .  A
N148        N149   1.317       .  A
N148        N150   1.315       .  A
N148       Mn154   2.176       .  S
N149        C156   1.350       .  A
N150        N151   1.325       .  A
N150       Mn176   2.236       .  S
N151        C156   1.358       .  A
N152        N153   1.332       .  A
N152       Mn154   2.272       .  S
N153        C155   1.364       .  A
Mn154      Cl178   2.548       .  S
C155       C1195   1.501       .  S
C156       C1252   1.479   1_655  S
N157        N158   1.319       .  A
N157        N163   1.315       .  A
N157       Mn165   2.183       .  S
N158        C166   1.351       .  A
N159        N161   1.320       .  A
N159        N160   1.327       .  A
N159       Mn177   2.235       .  S
N160        C167   1.358       .  A
N161        N162   1.325       .  A
N161       Mn165   2.235       .  S
N162        C167   1.354       .  A
N163        N164   1.321       .  A
N163       Mn177   2.208       .  S
N164        C166   1.352       .  A
Mn165      Cl178   2.545       .  S
C166       C1245   1.467       .  S
C167       C1185   1.494       .  S
N168        N169   1.308       .  A
N168        N174   1.319       .  A
N168       Mn176   2.149       .  S
N169        C179   1.335       .  A
N170        N171   1.314       .  A
N170        N172   1.317       .  A
N170       Mn177   2.166       .  S
N171        C180   1.343       .  A
N172        N173   1.330       .  A
N172       Mn176   2.259       .  S
N173        C180   1.365       .  A
N174        N175   1.331       .  A
N174       Mn177   2.247       .  S
N175        C179   1.361       .  A
Mn176      Cl178   2.538       .  S
Mn177      Cl178   2.553       .  S
C179       C1155   1.468       .  S
C180       C1145   1.479       .  S
N181        N182   1.302       .  A
N181        N187   1.315       .  A
N181       Mn210   2.122       .  S
N182        C189   1.335       .  A
N183        N185   1.318       .  A
N183        N184   1.326       .  A
N183       Mn199   2.236       .  S
N184        C190   1.360       .  A
N185        N186   1.307       .  A
N185       Mn210   2.143       .  S
N186        C190   1.339       .  A
N187        N188   1.332       .  A
N187       Mn199   2.259       .  S
N188        C189   1.368       .  A
C189       C1292   1.482       .  S
C190       C1092   1.464       .  S
N191        N197   1.324       .  A
N191        N192   1.318       .  A
N191       Mn221   2.205       .  S
N192        C200   1.349       .  A
N193        N194   1.323       .  A
N193        N195   1.320       .  A
N193       Mn199   2.223       .  S
N194        C201   1.355       .  A
N195        N196   1.327       .  A
N195       Mn221   2.238       .  S
N196        C201   1.356       .  A
N197        N198   1.330       .  A
N197       Mn199   2.263       .  S
N198        C200   1.360       .  A
Mn199      Cl223   2.537       .  S
C200       C1102   1.489       .  S
C201       C1225   1.491       .  S
N202        N203   1.321       .  A
N202        N208   1.303       .  A
N202       Mn210   2.173       .  S
N203        C211   1.357       .  A
N204        N206   1.306       .  A
N204        N205   1.320       .  A
N204       Mn222   2.168       .  S
N205        C212   1.354       .  A
N206        N207   1.317       .  A
N206       Mn210   2.192       .  S
N207        C212   1.355       .  A
N208        N209   1.316       .  A
N208       Mn222   2.164       .  S
N209        C211   1.350       .  A
Mn210      Cl223   2.526       .  S
C211       C1062   1.476       .  S
C212       C1112   1.481       .  S
N213        N214   1.312       .  A
N213        N219   1.313       .  A
N213       Mn221   2.137       .  S
N214        C224   1.345       .  A
N215        N216   1.304       .  A
N215        N217   1.314       .  A
N215       Mn222   2.147       .  S
N216        C225   1.327       .  A
N217        N218   1.333       .  A
N217       Mn221   2.261       .  S
N218        C225   1.367       .  A
N219        N220   1.316       .  A
N219       Mn222   2.197       .  S
N220        C224   1.350       .  A
Mn221      Cl223   2.547       .  S
Mn222      Cl223   2.507       .  S
C224       C1082   1.455       .  S
C225       C1075   1.476       .  S
N226        N227   1.334       .  A
N226        N232   1.313       .  A
N226       Mn255   2.251       .  S
N227        C234   1.365       .  A
N228        N230   1.321       .  A
N228        N229   1.328       .  A
N228       Mn244   2.247       .  S
N229        C235   1.357       .  A
N230        N231   1.320       .  A
N230       Mn255   2.202       .  S
N231        C235   1.351       .  A
N232        N233   1.299       .  A
N232       Mn244   2.098       .  S
N233        C234   1.331       .  A
C234       C1235   1.461       .  S
C235       C1105   1.491       .  S
N236        N242   1.310       .  A
N236        N237   1.319       .  A
N236       Mn266   2.180       .  S
N237        C245   1.352       .  A
N238        N239   1.329       .  A
N238        N240   1.315       .  A
N238       Mn244   2.237       .  S
N239        C246   1.359       .  A
N240        N241   1.319       .  A
N240       Mn266   2.183       .  S
N241        C246   1.349       .  A
N242        N243   1.309       .  A
N242       Mn244   2.131       .  S
N243        C245   1.341       .  A
Mn244      Cl268   2.495       .  S
C245       C1055   1.442       .  S
C246       C1285   1.493       .  S
N247        N248   1.334       .  A
N247        N253   1.313       .  A
N247       Mn255   2.262       .  S
N248        C256   1.371       .  A
N249        N251   1.321       .  A
N249        N250   1.332       .  A
N249       Mn267   2.271       .  S
N250        C257   1.366       .  A
N251        N252   1.311       .  A
N251       Mn255   2.167       .  S
N252        C257   1.339       .  A
N253        N254   1.299       .  A
N253       Mn267   2.114       .  S
N254        C256   1.331       .  A
Mn255      Cl268   2.568       .  S
C256       C1032   1.483       .  S
C257       C1042   1.489       .  S
N258        N259   1.313   1_565  A
N258        N264   1.312       .  A
N258       Mn266   2.181       .  S
N259        C269   1.348       .  A
N260        N261   1.324       .  A
N260        N262   1.313       .  A
N260       Mn267   2.243       .  S
N261        C270   1.358       .  A
N262        N263   1.325       .  A
N262       Mn266   2.192       .  S
N263        C270   1.356       .  A
N264        N265   1.324   1_565  A
N264       Mn267   2.198       .  S
N265        C269   1.358       .  A
Mn266      Cl268   2.557       .  S
Mn267      Cl268   2.507       .  S
C269       C1115   1.479       .  S
C270       C1022   1.505       .  S
N271        N272   1.327       .  A
N271        N277   1.316       .  A
N271       Mn300   2.222       .  S
N272        C279   1.359       .  A
N273        N275   1.311       .  A
N273        N274   1.312       .  A
N273       Mn289   2.150       .  S
N274        C280   1.348       .  A
N275        N276   1.315       .  A
N275       Mn300   2.169       .  S
N276        C280   1.348       .  A
N277        N278   1.322       .  A
N277       Mn289   2.227       .  S
N278        C279   1.356       .  A
C279       C1172   1.502       .  S
C280       C1085   1.451       .  S
N281        N287   1.318       .  A
N281        N282   1.312       .  A
N281       Mn311   2.165       .  S
N282        C290   1.344       .  A
N283        N284   1.308       .  A
N283        N285   1.313       .  A
N283       Mn289   2.126       .  S
N284        C291   1.337       .  A
N285        N286   1.328       .  A
N285       Mn311   2.239       .  S
N286        C291   1.361       .  A
N287        N288   1.328       .  A
N287       Mn289   2.246       .  S
N288        C290   1.359       .  A
Mn289      Cl313   2.524       .  S
C290       C1002   1.477       .  S
C291       C1122   1.464       .  S
N292        N293   1.323       .  A
N292        N298   1.318       .  A
N292       Mn300   2.208       .  S
N293        C301   1.352       .  A
N294        N296   1.313       .  A
N294        N295   1.328       .  A
N294       Mn312   2.223       .  S
N295        C302   1.360       .  A
N296        N297   1.315       .  A
N296       Mn300   2.185       .  S
N297        C302   1.352       .  A
N298        N299   1.327       .  A
N298       Mn312   2.231       .  S
N299        C301   1.358       .  A
Mn300      Cl313   2.542       .  S
C301        C982   1.503       .  S
C302       C1012   1.498       .  S
N303        N304   1.311       .  A
N303        N309   1.321       .  A
N303       Mn311   2.163       .  S
N304        C314   1.341       .  A
N305        N306   1.317       .  A
N305        N307   1.315       .  A
N305       Mn312   2.180       .  S
N306        C315   1.346       .  A
N307        N308   1.327       .  A
N307       Mn311   2.223       .  S
N308        C315   1.357       .  A
N309        N310   1.323       .  A
N309       Mn312   2.234       .  S
N310        C314   1.358       .  A
Mn311      Cl313   2.533       .  S
Mn312      Cl313   2.541       .  S
C314       C1095   1.462       .  S
C315        C992   1.474       .  S
N316        N317   1.329       .  A
N316        N322   1.320       .  A
N316       Mn345   2.263       .  S
N317        C324   1.360       .  A
N318        N320   1.320       .  A
N318        N319   1.330       .  A
N318       Mn334   2.254       .  S
N319        C325   1.359   1_565  A
N320        N321   1.316       .  A
N320       Mn345   2.182       .  S
N321        C325   1.345   1_565  A
N322        N323   1.309       .  A
N322       Mn334   2.128       .  S
N323        C324   1.335       .  A
C324       C1162   1.462       .  S
C325       C1015   1.488       .  S
N326        N332   1.312       .  A
N326        N327   1.316       .  A
N326       Mn356   2.174       .  S
N327        C335   1.349       .  A
N328        N329   1.332       .  A
N328        N330   1.316       .  A
N328       Mn334   2.273       .  S
N329        C336   1.366       .  A
N330        N331   1.319       .  A
N330       Mn356   2.180       .  S
N331        C336   1.348       .  A
N332        N333   1.311       .  A
N332       Mn334   2.152       .  S
N333        C335   1.345       .  A
Mn334      Cl358   2.533       .  S
C335       C1052   1.434       .  S
C336       C1135   1.505       .  S
N337        N338   1.336       .  A
N337        N343   1.314       .  A
N337       Mn345   2.265       .  S
N338        C346   1.369       .  A
N339        N341   1.321       .  A
N339        N340   1.328       .  A
N339       Mn357   2.252       .  S
N340        C347   1.363       .  A
N341        N342   1.315       .  A
N341       Mn345   2.178       .  S
N342        C347   1.342       .  A
N343        N344   1.304       .  A
N343       Mn357   2.124       .  S
N344        C346   1.335       .  A
Mn345      Cl358   2.538       .  S
C346        C962   1.478       .  S
C347       C1045   1.493       .  S
N348        N349   1.315       .  A
N348        N354   1.313       .  A
N348       Mn356   2.190       .  S
N349        C359   1.353       .  A
N350        N351   1.330       .  A
N350        N352   1.314       .  A
N350       Mn357   2.244       .  S
N351        C360   1.360       .  A
N352        N353   1.320       .  A
N352       Mn356   2.183       .  S
N353        C360   1.349       .  A
N354        N355   1.324       .  A
N354       Mn357   2.199       .  S
N355        C359   1.356       .  A
Mn356      Cl358   2.547       .  S
Mn357      Cl358   2.535       .  S
C359       C1005   1.489       .  S
C360        C972   1.493       .  S
N361        N362   1.316       .  A
N361        N367   1.315       .  A
N361       Mn390   2.179       .  S
N362        C369   1.350       .  A
N363        N365   1.316       .  A
N363        N364   1.324       .  A
N363       Mn379   2.205       .  S
N364        C370   1.358       .  A
N365        N366   1.312   1_455  A
N365       Mn390   2.190   1_455  S
N366        C370   1.347   1_655  A
N367        N368   1.327       .  A
N367       Mn379   2.241   1_655  S
N368        C369   1.361       .  A
C369        C995   1.496       .  S
C370        C922   1.481       .  S
N371        N377   1.317       .  A
N371        N372   1.316       .  A
N371       Mn401   2.194       .  S
N372        C380   1.349       .  A
N373        N374   1.317       .  A
N373        N375   1.316       .  A
N373       Mn379   2.191       .  S
N374        C381   1.351       .  A
N375        N376   1.320       .  A
N375       Mn401   2.201       .  S
N376        C381   1.353       .  A
N377        N378   1.331       .  A
N377       Mn379   2.254       .  S
N378        C380   1.365       .  A
Mn379      Cl403   2.560       .  S
C380        C952   1.502       .  S
C381       C1065   1.466       .  S
N382        N383   1.315       .  A
N382        N388   1.313       .  A
N382       Mn390   2.188       .  S
N383        C391   1.351       .  A
N384        N386   1.313       .  A
N384        N385   1.316       .  A
N384       Mn402   2.171       .  S
N385        C392   1.346       .  A
N386        N387   1.320       .  A
N386       Mn390   2.202       .  S
N387        C392   1.355       .  A
N388        N389   1.325       .  A
N388       Mn402   2.209       .  S
N389        C391   1.357       .  A
Mn390      Cl403   2.531   1_655  S
C391        C905   1.476       .  S
C392        C942   1.456       .  S
N393        N394   1.318       .  A
N393        N399   1.314   1_455  A
N393       Mn401   2.191       .  S
N394        C404   1.351   1_455  A
N395        N396   1.316       .  A
N395        N397   1.316       .  A
N395       Mn402   2.181   1_455  S
N396        C405   1.348       .  A
N397        N398   1.321       .  A
N397       Mn401   2.205       .  S
N398        C405   1.353       .  A
N399        N400   1.320       .  A
N399       Mn402   2.191       .  S
N400        C404   1.350       .  A
Mn401      Cl403   2.533       .  S
Mn402      Cl403   2.552   1_655  S
C404        C932   1.459       .  S
C405        C915   1.464       .  S
N406        N407   1.330       .  A
N406        N412   1.318       .  A
N406       Mn435   2.250       .  S
N407        C414   1.360       .  A
N408        N410   1.322       .  A
N408        N409   1.317       .  A
N408       Mn424   2.209       .  S
N409        C415   1.348       .  A
N410        N411   1.317       .  A
N410       Mn435   2.204       .  S
N411        C415   1.352       .  A
N412        N413   1.318       .  A
N412       Mn424   2.190       .  S
N413        C414   1.350       .  A
C414        C975   1.504       .  S
C415        C882   1.453       .  S
N416        N422   1.310   1_455  A
N416        N417   1.316   1_565  A
N416       Mn446   2.181       .  S
N417        C425   1.351   1_455  A
N418        N419   1.329       .  A
N418        N420   1.318       .  A
N418       Mn424   2.247   1_455  S
N419        C426   1.362       .  A
N420        N421   1.316       .  A
N420       Mn446   2.197       .  S
N421        C426   1.351       .  A
N422        N423   1.322   1_565  A
N422       Mn424   2.188       .  S
N423        C425   1.353       .  A
Mn424      Cl448   2.533   1_655  S
C425        C935   1.477       .  S
C426       C1025   1.497       .  S
N427        N428   1.338       .  A
N427        N433   1.312   1_655  A
N427       Mn435   2.280       .  S
N428        C436   1.371       .  A
N429        N431   1.319       .  A
N429        N430   1.325       .  A
N429       Mn447   2.238       .  S
N430        C437   1.358       .  A
N431        N432   1.312       .  A
N431       Mn435   2.175   1_455  S
N432        C437   1.348       .  A
N433        N434   1.309       .  A
N433       Mn447   2.131       .  S
N434        C436   1.334   1_455  A
Mn435      Cl448   2.566   1_655  S
C436        C872   1.492       .  S
C437        C925   1.466       .  S
N438        N439   1.323       .  A
N438        N444   1.309       .  A
N438       Mn446   2.210       .  S
N439        C449   1.360       .  A
N440        N441   1.329       .  A
N440        N442   1.316       .  A
N440       Mn447   2.220       .  S
N441        C450   1.356       .  A
N442        N443   1.321       .  A
N442       Mn446   2.206       .  S
N443        C450   1.352       .  A
N444        N445   1.320       .  A
N444       Mn447   2.173       .  S
N445        C449   1.350       .  A
Mn446      Cl448   2.549       .  S
Mn447      Cl448   2.514       .  S
C449        C892   1.493       .  S
C450        C862   1.504       .  S
N451        N452   1.332       .  A
N451        N457   1.313       .  A
N451       Mn480   2.265       .  S
N452        C459   1.366       .  A
N453        N455   1.319       .  A
N453        N454   1.332       .  A
N453       Mn469   2.288       .  S
N454        C460   1.364       .  A
N455        N456   1.316       .  A
N455       Mn480   2.178       .  S
N456        C460   1.351       .  A
N457        N458   1.305       .  A
N457       Mn469   2.124       .  S
N458        C459   1.328       .  A
C459       C1072   1.473       .  S
C460        C955   1.506       .  S
N461        N467   1.308       .  A
N461        N462   1.311       .  A
N461       Mn491   2.164       .  S
N462        C470   1.350       .  A
N463        N464   1.328       .  A
N463        N465   1.311       .  A
N463       Mn469   2.240       .  S
N464        C471   1.360       .  A
N465        N466   1.321       .  A
N465       Mn491   2.178       .  S
N466        C471   1.352       .  A
N467        N468   1.319       .  A
N467       Mn469   2.163       .  S
N468        C470   1.352       .  A
Mn469      Cl493   2.500       .  S
C470        C842   1.469       .  S
C471        C985   1.506       .  S
N472        N473   1.332       .  A
N472        N478   1.319       .  A
N472       Mn480   2.255       .  S
N473        C481   1.362       .  A
N474        N476   1.321       .  A
N474        N475   1.322       .  A
N474       Mn492   2.219       .  S
N475        C482   1.355       .  A
N476        N477   1.316       .  A
N476       Mn480   2.205       .  S
N477        C482   1.350       .  A
N478        N479   1.316       .  A
N478       Mn492   2.183       .  S
N479        C481   1.347       .  A
Mn480      Cl493   2.562       .  S
C481        C835   1.496       .  S
C482        C855   1.484       .  S
N483        N484   1.313       .  A
N483        N489   1.311       .  A
N483       Mn491   2.156       .  S
N484        C494   1.345       .  A
N485        N486   1.327       .  A
N485        N487   1.316       .  A
N485       Mn492   2.240       .  S
N486        C495   1.361       .  A
N487        N488   1.316       .  A
N487       Mn491   2.177       .  S
N488        C495   1.346       .  A
N489        N490   1.323       .  A
N489       Mn492   2.201       .  S
N490        C494   1.355       .  A
Mn491      Cl493   2.539       .  S
Mn492      Cl493   2.530       .  S
C494        C945   1.455       .  S
C495        C825   1.480       .  S
N496        N497   1.316       .  A
N496        N502   1.314       .  A
N496       Mn525   2.164       .  S
N497        C504   1.346       .  A
N498        N500   1.308       .  A
N498        N499   1.320       .  A
N498       Mn514   2.173       .  S
N499        C505   1.356       .  A
N500        N501   1.308       .  A
N500       Mn525   2.157       .  S
N501        C505   1.344       .  A
N502        N503   1.328       .  A
N502       Mn514   2.230       .  S
N503        C504   1.357       .  A
C504        C965   1.488       .  S
C505        C845   1.467       .  S
N506        N512   1.321       .  A
N506        N507   1.314       .  A
N506       Mn536   2.173       .  S
N507        C515   1.345       .  A
N508        N509   1.302       .  A
N508        N510   1.311       .  A
N508       Mn514   2.110       .  S
N509        C516   1.329       .  A
N510        N511   1.333       .  A
N510       Mn536   2.265       .  S
N511        C516   1.370       .  A
N512        N513   1.330       .  A
N512       Mn514   2.272       .  S
N513        C515   1.361       .  A
Mn514      Cl538   2.478       .  S
C515        C895   1.483       .  S
C516       C1035   1.486       .  S
N517        N518   1.318       .  A
N517        N523   1.313       .  A
N517       Mn525   2.174       .  S
N518        C526   1.349       .  A
N519        N521   1.307       .  A
N519        N520   1.318       .  A
N519       Mn537   2.161       .  S
N520        C527   1.351       .  A
N521        N522   1.314       .  A
N521       Mn525   2.173       .  S
N522        C527   1.352       .  A
N523        N524   1.324       .  A
N523       Mn537   2.211       .  S
N524        C526   1.352       .  A
Mn525      Cl538   2.546       .  S
C526        C815   1.486       .  S
C527        C885   1.468       .  S
N528        N529   1.311       .  A
N528        N534   1.318       .  A
N528       Mn536   2.164       .  S
N529        C539   1.348   1_565  A
N530        N531   1.299       .  A
N530        N532   1.310       .  A
N530       Mn537   2.109       .  S
N531        C540   1.327       .  A
N532        N533   1.335       .  A
N532       Mn536   2.261       .  S
N533        C540   1.371       .  A
N534        N535   1.325       .  A
N534       Mn537   2.243       .  S
N535        C539   1.360   1_565  A
Mn536      Cl538   2.569       .  S
Mn537      Cl538   2.474       .  S
C539        C852   1.484       .  S
C540        C802   1.471       .  S
N541        N542   1.305       .  A
N541        N547   1.314       .  A
N541       Mn570   2.119       .  S
N542        C549   1.333       .  A
N543        N545   1.318   1_655  A
N543        N544   1.326       .  A
N543       Mn559   2.230       .  S
N544        C550   1.359   1_655  A
N545        N546   1.310       .  A
N545       Mn570   2.155       .  S
N546        C550   1.339       .  A
N547        N548   1.331       .  A
N547       Mn559   2.262   1_455  S
N548        C549   1.368       .  A
C549       C1345   1.478       .  S
C550        C795   1.460       .  S
N551        N557   1.326       .  A
N551        N552   1.322       .  A
N551       Mn581   2.218       .  S
N552        C560   1.351       .  A
N553        N554   1.320       .  A
N553        N555   1.319       .  A
N553       Mn559   2.206       .  S
N554        C561   1.352       .  A
N555        N556   1.330       .  A
N555       Mn581   2.253       .  S
N556        C561   1.360       .  A
N557        N558   1.331       .  A
N557       Mn559   2.274       .  S
N558        C560   1.361       .  A
Mn559      Cl583   2.556   1_655  S
C560        C762   1.499       .  S
C561       C1215   1.494       .  S
N562        N563   1.315       .  A
N562        N568   1.307       .  A
N562       Mn570   2.161       .  S
N563        C571   1.350       .  A
N564        N566   1.307       .  A
N564        N565   1.321       .  A
N564       Mn582   2.179       .  S
N565        C572   1.354       .  A
N566        N567   1.320       .  A
N566       Mn570   2.192       .  S
N567        C572   1.355       .  A
N568        N569   1.321       .  A
N568       Mn582   2.195       .  S
N569        C571   1.357       .  A
Mn570      Cl583   2.525       .  S
C571        C912   1.476       .  S
C572        C775   1.480       .  S
N573        N574   1.312   1_545  A
N573        N579   1.314   1_655  A
N573       Mn581   2.153       .  S
N574        C584   1.345   1_655  A
N575        N576   1.305   1_655  A
N575        N577   1.318       .  A
N575       Mn582   2.140   1_655  S
N576        C585   1.333   1_455  A
N577        N578   1.339       .  A
N577       Mn581   2.284       .  S
N578        C585   1.371       .  A
N579        N580   1.313   1_545  A
N579       Mn582   2.176       .  S
N580        C584   1.349       .  A
Mn581      Cl583   2.562   1_655  S
Mn582      Cl583   2.519       .  S
C584        C782   1.452       .  S
C585        C865   1.492       .  S
N586        N587   1.320       .  A
N586        N592   1.317       .  A
N586       Mn615   2.197       .  S
N587        C594   1.352       .  A
N588        N590   1.309       .  A
N588        N589   1.311       .  A
N588       Mn604   2.134       .  S
N589        C595   1.344       .  A
N590        N591   1.314       .  A
N590       Mn615   2.156       .  S
N591        C595   1.348       .  A
N592        N593   1.323       .  A
N592       Mn604   2.235       .  S
N593        C594   1.359       .  A
C594       C1265   1.489       .  S
C595        C785   1.446       .  S
N596        N602   1.317       .  A
N596        N597   1.308       .  A
N596       Mn626   2.157       .  S
N597        C605   1.346       .  A
N598        N599   1.312   1_455  A
N598        N600   1.318   1_455  A
N598       Mn604   2.144       .  S
N599        C606   1.339       .  A
N600        N601   1.330       .  A
N600       Mn626   2.239       .  S
N601        C606   1.357       .  A
N602        N603   1.329       .  A
N602       Mn604   2.250   1_655  S
N603        C605   1.361       .  A
Mn604      Cl628   2.520       .  S
C605        C742   1.476       .  S
C606       C1152   1.487       .  S
N607        N608   1.326       .  A
N607        N613   1.320       .  A
N607       Mn615   2.212       .  S
N608        C616   1.352       .  A
N609        N611   1.309       .  A
N609        N610   1.332       .  A
N609       Mn627   2.229       .  S
N610        C617   1.364       .  A
N611        N612   1.314       .  A
N611       Mn615   2.178       .  S
N612        C617   1.347       .  A
N613        N614   1.330       .  A
N613       Mn627   2.243       .  S
N614        C616   1.358       .  A
Mn615      Cl628   2.531       .  S
C616        C875   1.515       .  S
C617        C752   1.503       .  S
N618        N619   1.310       .  A
N618        N624   1.324       .  A
N618       Mn626   2.177   1_455  S
N619        C629   1.340       .  A
N620        N621   1.311       .  A
N620        N622   1.311   1_455  A
N620       Mn627   2.152       .  S
N621        C630   1.342   1_455  A
N622        N623   1.330       .  A
N622       Mn626   2.226       .  S
N623        C630   1.361       .  A
N624        N625   1.325       .  A
N624       Mn627   2.244       .  S
N625        C629   1.359       .  A
Mn626      Cl628   2.521   1_655  S
Mn627      Cl628   2.537       .  S
C629        C792   1.458       .  S
C630        C902   1.481       .  S
N631        N632   1.332       .  A
N631        N637   1.318       .  A
N631       Mn660   2.264       .  S
N632        C639   1.362       .  A
N633        N635   1.322       .  A
N633        N634   1.332       .  A
N633       Mn649   2.277       .  S
N634        C640   1.362       .  A
N635        N636   1.321       .  A
N635       Mn660   2.196       .  S
N636        C640   1.350       .  A
N637        N638   1.310       .  A
N637       Mn649   2.136       .  S
N638        C639   1.335       .  A
C639       C1205   1.479       .  S
C640        C765   1.502       .  S
N641        N647   1.311       .  A
N641        N642   1.318       .  A
N641       Mn671   2.172       .  S
N642        C650   1.350       .  A
N643        N644   1.331       .  A
N643        N645   1.314       .  A
N643       Mn649   2.246       .  S
N644        C651   1.362       .  A
N645        N646   1.313       .  A
N645       Mn671   2.162       .  S
N646        C651   1.346       .  A
N647        N648   1.313       .  A
N647       Mn649   2.169       .  S
N648        C650   1.349       .  A
Mn649      Cl673   2.502       .  S
C650        C732   1.467       .  S
C651       C1355   1.498       .  S
N652        N653   1.334       .  A
N652        N658   1.313       .  A
N652       Mn660   2.270       .  S
N653        C661   1.372       .  A
N654        N656   1.321       .  A
N654        N655   1.334   1_545  A
N654       Mn672   2.284       .  S
N655        C662   1.369       .  A
N656        N657   1.312   1_545  A
N656       Mn660   2.170       .  S
N657        C662   1.339       .  A
N658        N659   1.301       .  A
N658       Mn672   2.114       .  S
N659        C661   1.328       .  A
Mn660      Cl673   2.564       .  S
C661        C805   1.465       .  S
C662        C725   1.502       .  S
N663        N664   1.315       .  A
N663        N669   1.314       .  A
N663       Mn671   2.189       .  S
N664        C674   1.348       .  A
N665        N666   1.324       .  A
N665        N667   1.313       .  A
N665       Mn672   2.234       .  S
N666        C675   1.357       .  A
N667        N668   1.324       .  A
N667       Mn671   2.190       .  S
N668        C675   1.354       .  A
N669        N670   1.325       .  A
N669       Mn672   2.205       .  S
N670        C674   1.358       .  A
Mn671      Cl673   2.559       .  S
Mn672      Cl673   2.512       .  S
C674        C772   1.480       .  S
C675        C832   1.487       .  S
N676        N677   1.331       .  A
N676        N682   1.316       .  A
N676       Mn705   2.258       .  S
N677        C684   1.365       .  A
N678        N680   1.318       .  A
N678        N679   1.336       .  A
N678       Mn694   2.273       .  S
N679        C685   1.367       .  A
N680        N681   1.310       .  A
N680       Mn705   2.165       .  S
N681        C685   1.343       .  A
N682        N683   1.302       .  A
N682       Mn694   2.114       .  S
N683        C684   1.333       .  A
C684       C1272   1.466       .  S
C685        C755   1.496       .  S
N686        N692   1.312       .  A
N686        N687   1.317       .  A
N686       Mn716   2.185       .  S
N687        C695   1.350       .  A
N688        N689   1.332       .  A
N688        N690   1.311       .  A
N688       Mn694   2.264       .  S
N689        C696   1.368       .  A
N690        N691   1.313       .  A
N690       Mn716   2.150       .  S
N691        C696   1.344       .  A
N692        N693   1.314       .  A
N692       Mn694   2.164       .  S
N693        C695   1.350       .  A
Mn694      Cl718   2.541       .  S
C695        C735   1.460       .  S
C696       C1142   1.501       .  S
N697        N698   1.329       .  A
N697        N703   1.315       .  A
N697       Mn705   2.239       .  S
N698        C706   1.360       .  A
N699        N701   1.323       .  A
N699        N700   1.331       .  A
N699       Mn717   2.270       .  S
N700        C707   1.363       .  A
N701        N702   1.316       .  A
N701       Mn705   2.173       .  S
N702        C707   1.342       .  A
N703        N704   1.310       .  A
N703       Mn717   2.152       .  S
N704        C706   1.340       .  A
Mn705      Cl718   2.531       .  S
C706        C812   1.466       .  S
C707        C722   1.489       .  S
N708        N709   1.311       .  A
N708        N714   1.314       .  A
N708       Mn716   2.179       .  S
N709        C719   1.346       .  A
N710        N711   1.330       .  A
N710        N712   1.311       .  A
N710       Mn717   2.250       .  S
N711        C720   1.366       .  A
N712        N713   1.311       .  A
N712       Mn716   2.139       .  S
N713        C720   1.339       .  A
N714        N715   1.327       .  A
N714       Mn717   2.219       .  S
N715        C719   1.360       .  A
Mn716      Cl718   2.528       .  S
Mn717      Cl718   2.541       .  S
C719        C745   1.485       .  S
C720        C822   1.490       .  S
C721        C722   1.394       .  A
C721        C726   1.403       .  A
C721        H728   1.084       .  S
C722        C723   1.418       .  A
C723        C724   1.406       .  A
C723       Br730   1.921       .  S
C724        C725   1.403       .  A
C724        H729   1.083       .  S
C725        C726   1.430       .  A
C726       Br727   1.925       .  S
C731        C732   1.404       .  A
C731        C736   1.388       .  A
C731        H738   1.084       .  S
C732        C733   1.411       .  A
C733        C734   1.393       .  A
C733       Br740   1.921       .  S
C734        C735   1.402       .  A
C734        H739   1.084       .  S
C735        C736   1.408       .  A
C736       Br737   1.923       .  S
C741        C742   1.399       .  A
C741        C746   1.383       .  A
C741        H748   1.085       .  S
C742        C743   1.406       .  A
C743        C744   1.412       .  A
C743       Br750   1.914       .  S
C744        C745   1.413       .  A
C744        H749   1.083       .  S
C745        C746   1.417       .  A
C746       Br747   1.928       .  S
C751        C752   1.416       .  A
C751        C756   1.420       .  A
C751        H758   1.083       .  S
C752        C753   1.419       .  A
C753        C754   1.390       .  A
C753       Br760   1.929       .  S
C754        C755   1.402       .  A
C754        H759   1.084       .  S
C755        C756   1.410       .  A
C756       Br757   1.914       .  S
C761        C762   1.403       .  A
C761        C766   1.402       .  A
C761        H768   1.084       .  S
C762        C763   1.413       .  A
C763        C764   1.418       .  A
C763       Br770   1.915       .  S
C764        C765   1.410       .  A
C764        H769   1.083       .  S
C765        C766   1.414       .  A
C766       Br767   1.916       .  S
C771        C772   1.405       .  A
C771        C776   1.398       .  A
C771        H778   1.084       .  S
C772        C773   1.413       .  A
C773        C774   1.402       .  A
C773       Br780   1.920       .  S
C774        C775   1.405       .  A
C774        H779   1.083       .  S
C775        C776   1.408       .  A
C776       Br777   1.920       .  S
C781        C782   1.402       .  A
C781        C786   1.385       .  A
C781        H788   1.084       .  S
C782        C783   1.411   1_455  A
C783        C784   1.384       .  A
C783       Br790   1.924       .  S
C784        C785   1.398   1_655  A
C784        H789   1.084       .  S
C785        C786   1.405       .  A
C786       Br787   1.922       .  S
C791        C792   1.407       .  A
C791        C796   1.396   1_455  A
C791        H798   1.084   1_455  S
C792        C793   1.399       .  A
C793        C794   1.395       .  A
C793       Br800   1.918       .  S
C794        C795   1.407       .  A
C794        H799   1.084       .  S
C795        C796   1.400   1_455  A
C796       Br797   1.918       .  S
C801        C802   1.408       .  A
C801        C806   1.397       .  A
C801        H808   1.085       .  S
C802        C803   1.412   1_565  A
C803        C804   1.407       .  A
C803       Br810   1.918       .  S
C804        C805   1.409       .  A
C804        H809   1.084       .  S
C805        C806   1.409   1_545  A
C806       Br807   1.920       .  S
C811        C812   1.405       .  A
C811        C816   1.404       .  A
C811        H818   1.084       .  S
C812        C813   1.404       .  A
C813        C814   1.397       .  A
C813       Br820   1.919       .  S
C814        C815   1.408       .  A
C814        H819   1.083       .  S
C815        C816   1.413       .  A
C816       Br817   1.920       .  S
C821        C822   1.402       .  A
C821        C826   1.401       .  A
C821        H828   1.083       .  S
C822        C823   1.426       .  A
C823        C824   1.400       .  A
C823       Br830   1.923       .  S
C824        C825   1.395       .  A
C824        H829   1.084       .  S
C825        C826   1.412       .  A
C826       Br827   1.912       .  S
C831        C832   1.409       .  A
C831        C836   1.414       .  A
C831        H838   1.083       .  S
C832        C833   1.407       .  A
C833        C834   1.398       .  A
C833       Br840   1.921       .  S
C834        C835   1.409       .  A
C834        H839   1.083       .  S
C835        C836   1.412       .  A
C836       Br837   1.916       .  S
C841        C842   1.400       .  A
C841        C846   1.381       .  A
C841        H848   1.083       .  S
C842        C843   1.411       .  A
C843        C844   1.398       .  A
C843       Br850   1.921       .  S
C844        C845   1.405       .  A
C844        H849   1.083       .  S
C845        C846   1.412       .  A
C846       Br847   1.928       .  S
C851        C852   1.405       .  A
C851        C856   1.390       .  A
C851        H858   1.083       .  S
C852        C853   1.410       .  A
C853        C854   1.404       .  A
C853       Br860   1.919       .  S
C854        C855   1.409       .  A
C854        H859   1.083       .  S
C855        C856   1.414       .  A
C856       Br857   1.926       .  S
C861        C862   1.414   1_655  A
C861        C866   1.417       .  A
C861        H868   1.083       .  S
C862        C863   1.412   1_565  A
C863        C864   1.398   1_455  A
C863       Br870   1.921       .  S
C864        C865   1.407       .  A
C864        H869   1.085   1_655  S
C865        C866   1.414   1_545  A
C866       Br867   1.917       .  S
C871        C872   1.405       .  A
C871        C876   1.407   1_655  A
C871        H878   1.084       .  S
C872        C873   1.408       .  A
C873        C874   1.410   1_655  A
C873       Br880   1.905       .  S
C874        C875   1.406       .  A
C874        H879   1.074       .  S
C875        C876   1.421       .  A
C876       Br877   1.911       .  S
C881        C882   1.398       .  A
C881        C886   1.399       .  A
C881        H888   1.084       .  S
C882        C883   1.403       .  A
C883        C884   1.387       .  A
C883       Br890   1.922       .  S
C884        C885   1.402       .  A
C884        H889   1.084       .  S
C885        C886   1.416       .  A
C886       Br887   1.921       .  S
C891        C892   1.401       .  A
C891        C896   1.394       .  A
C891        H898   1.083       .  S
C892        C893   1.423       .  A
C893        C894   1.410       .  A
C893       Br900   1.921       .  S
C894        C895   1.401       .  A
C894        H899   1.083       .  S
C895        C896   1.411       .  A
C896       Br897   1.915       .  S
C901        C902   1.408       .  A
C901        C906   1.411       .  A
C901        H908   1.083       .  S
C902        C903   1.412       .  A
C903        C904   1.386       .  A
C903       Br910   1.910   1_655  S
C904        C905   1.395       .  A
C904        H909   1.083       .  S
C905        C906   1.411       .  A
C906       Br907   1.916       .  S
C911        C912   1.407       .  A
C911        C916   1.393       .  A
C911        H918   1.083       .  S
C912        C913   1.411       .  A
C913        C914   1.399       .  A
C913       Br920   1.920       .  S
C914        C915   1.403       .  A
C914        H919   1.084       .  S
C915        C916   1.403       .  A
C916       Br917   1.921       .  S
C921        C922   1.412       .  A
C921        C926   1.406       .  A
C921        H928   1.083       .  S
C922        C923   1.416       .  A
C923        C924   1.385       .  A
C923       Br930   1.927   1_455  S
C924        C925   1.394       .  A
C924        H929   1.080   1_455  S
C925        C926   1.403       .  A
C926       Br927   1.915       .  S
C931        C932   1.401       .  A
C931        C936   1.403       .  A
C931        H938   1.083       .  S
C932        C933   1.401   1_655  A
C933        C934   1.389       .  A
C933       Br940   1.923       .  S
C934        C935   1.402   1_455  A
C934        H939   1.077       .  S
C935        C936   1.415       .  A
C936       Br937   1.918       .  S
C941        C942   1.397       .  A
C941        C946   1.390       .  A
C941        H948   1.084       .  S
C942        C943   1.405       .  A
C943        C944   1.400       .  A
C943       Br950   1.916       .  S
C944        C945   1.402       .  A
C944        H949   1.083       .  S
C945        C946   1.407       .  A
C946       Br947   1.923       .  S
C951        C952   1.409       .  A
C951        C956   1.415       .  A
C951        H958   1.083       .  S
C952        C953   1.417       .  A
C953        C954   1.398       .  A
C953       Br960   1.925       .  S
C954        C955   1.406       .  A
C954        H959   1.083       .  S
C955        C956   1.418       .  A
C956       Br957   1.914       .  S
C961        C962   1.405       .  A
C961        C966   1.394       .  A
C961        H968   1.085       .  S
C962        C963   1.409       .  A
C963        C964   1.412       .  A
C963       Br970   1.915       .  S
C964        C965   1.411       .  A
C964        H969   1.083       .  S
C965        C966   1.411       .  A
C966       Br967   1.925       .  S
C971        C972   1.406       .  A
C971        C976   1.416       .  A
C971        H978   1.083       .  S
C972        C973   1.410       .  A
C973        C974   1.397       .  A
C973       Br980   1.917       .  S
C974        C975   1.406       .  A
C974        H979   1.083       .  S
C975        C976   1.421       .  A
C976       Br977   1.917       .  S
C981        C982   1.411       .  A
C981        C986   1.408       .  A
C981        H988   1.083       .  S
C982        C983   1.413       .  A
C983        C984   1.406       .  A
C983       Br990   1.920       .  S
C984        C985   1.412       .  A
C984        H989   1.083       .  S
C985        C986   1.416       .  A
C986       Br987   1.921       .  S
C991        C992   1.404       .  A
C991        C996   1.407       .  A
C991        H998   1.084       .  S
C992        C993   1.401       .  A
C993        C994   1.398       .  A
C993      Br1000   1.919       .  S
C994        C995   1.411       .  A
C994        H999   1.083       .  S
C995        C996   1.417       .  A
C996       Br997   1.919       .  S
C1001      C1002   1.403       .  A
C1001      C1006   1.409       .  A
C1001      H1008   1.083       .  S
C1002      C1003   1.412       .  A
C1003      C1004   1.388       .  A
C1003     Br1010   1.924       .  S
C1004      C1005   1.402       .  A
C1004      H1009   1.083       .  S
C1005      C1006   1.418       .  A
C1006     Br1007   1.918       .  S
C1011      C1012   1.404       .  A
C1011      C1016   1.390       .  A
C1011      H1018   1.083       .  S
C1012      C1013   1.419       .  A
C1013      C1014   1.415       .  A
C1013     Br1020   1.917       .  S
C1014      C1015   1.406       .  A
C1014      H1019   1.083       .  S
C1015      C1016   1.413       .  A
C1016     Br1017   1.923       .  S
C1021      C1022   1.412       .  A
C1021      C1026   1.412       .  A
C1021      H1028   1.083       .  S
C1022      C1023   1.413       .  A
C1023      C1024   1.397       .  A
C1023     Br1030   1.908       .  S
C1024      C1025   1.404       .  A
C1024      H1029   1.083       .  S
C1025      C1026   1.414       .  A
C1026     Br1027   1.919       .  S
C1031      C1032   1.417       .  A
C1031      C1036   1.394       .  A
C1031      H1038   1.069       .  S
C1032      C1033   1.400       .  A
C1033      C1034   1.398       .  A
C1033     Br1040   1.919       .  S
C1034      C1035   1.423       .  A
C1034      H1039   1.082       .  S
C1035      C1036   1.396       .  A
C1036     Br1037   1.920       .  S
C1041      C1042   1.398       .  A
C1041      C1046   1.405       .  A
C1041      H1048   1.083       .  S
C1042      C1043   1.422       .  A
C1043      C1044   1.398       .  A
C1043     Br1050   1.925       .  S
C1044      C1045   1.398       .  A
C1044      H1049   1.083       .  S
C1045      C1046   1.426       .  A
C1046     Br1047   1.923       .  S
C1051      C1052   1.396       .  A
C1051      C1056   1.392   1_655  A
C1051      H1058   1.084       .  S
C1052      C1053   1.403       .  A
C1053      C1054   1.380   1_655  A
C1053     Br1060   1.924       .  S
C1054      C1055   1.396       .  A
C1054      H1059   1.084       .  S
C1055      C1056   1.403       .  A
C1056     Br1057   1.909       .  S
C1061      C1062   1.405       .  A
C1061      C1066   1.397       .  A
C1061      H1068   1.083       .  S
C1062      C1063   1.415       .  A
C1063      C1064   1.396       .  A
C1063     Br1070   1.923       .  S
C1064      C1065   1.400       .  A
C1064      H1069   1.084       .  S
C1065      C1066   1.405       .  A
C1066     Br1067   1.918       .  S
C1071      C1072   1.390       .  A
C1071      C1076   1.396       .  A
C1071      H1078   1.084       .  S
C1072      C1073   1.425       .  A
C1073      C1074   1.398       .  A
C1073     Br1080   1.914       .  S
C1074      C1075   1.389       .  A
C1074      H1079   1.084       .  S
C1075      C1076   1.427       .  A
C1076     Br1077   1.924       .  S
C1081      C1082   1.400       .  A
C1081      C1086   1.389       .  A
C1081      H1088   1.084       .  S
C1082      C1083   1.412       .  A
C1083      C1084   1.386       .  A
C1083     Br1090   1.924       .  S
C1084      C1085   1.397       .  A
C1084      H1089   1.084       .  S
C1085      C1086   1.409       .  A
C1086     Br1087   1.922       .  S
C1091      C1092   1.409       .  A
C1091      C1096   1.390   1_455  A
C1091      H1098   1.084       .  S
C1092      C1093   1.401       .  A
C1093      C1094   1.396   1_455  A
C1093     Br1100   1.919       .  S
C1094      C1095   1.410       .  A
C1094      H1099   1.084       .  S
C1095      C1096   1.398       .  A
C1096     Br1097   1.919       .  S
C1101      C1102   1.403       .  A
C1101      C1106   1.397       .  A
C1101      H1108   1.084       .  S
C1102      C1103   1.411       .  A
C1103      C1104   1.414       .  A
C1103     Br1110   1.915       .  S
C1104      C1105   1.409       .  A
C1104      H1109   1.083       .  S
C1105      C1106   1.413       .  A
C1106     Br1107   1.922       .  S
C1111      C1112   1.402       .  A
C1111      C1116   1.392       .  A
C1111      H1118   1.084       .  S
C1112      C1113   1.416       .  A
C1113      C1114   1.403       .  A
C1113     Br1120   1.921       .  S
C1114      C1115   1.405       .  A
C1114      H1119   1.083       .  S
C1115      C1116   1.412       .  A
C1116     Br1117   1.921       .  S
C1121      C1122   1.403       .  A
C1121      C1126   1.401       .  A
C1121      H1128   1.077       .  S
C1122      C1123   1.405   1_556  A
C1123      C1124   1.392       .  A
C1123     Br1130   1.923       .  S
C1124      C1125   1.404       .  A
C1124      H1129   1.084       .  S
C1125      C1126   1.407   1_554  A
C1126     Br1127   1.918       .  S
C1131      C1132   1.401       .  A
C1131      C1136   1.410   1_554  A
C1131      H1138   1.083       .  S
C1132      C1133   1.419       .  A
C1133      C1134   1.407   1_554  A
C1133     Br1140   1.921       .  S
C1134      C1135   1.403       .  A
C1134      H1139   1.083       .  S
C1135      C1136   1.424       .  A
C1136     Br1137   1.920       .  S
C1141      C1142   1.406       .  A
C1141      C1146   1.407       .  A
C1141      H1148   1.083       .  S
C1142      C1143   1.427       .  A
C1143      C1144   1.400       .  A
C1143     Br1150   1.918       .  S
C1144      C1145   1.394       .  A
C1144      H1149   1.084       .  S
C1145      C1146   1.410       .  A
C1146     Br1147   1.913       .  S
C1151      C1152   1.414       .  A
C1151      C1156   1.396       .  A
C1151      H1158   1.083       .  S
C1152      C1153   1.405       .  A
C1153      C1154   1.404       .  A
C1153     Br1160   1.917       .  S
C1154      C1155   1.412       .  A
C1154      H1159   1.084       .  S
C1155      C1156   1.397       .  A
C1156     Br1157   1.917       .  S
C1161      C1162   1.386       .  A
C1161      C1166   1.391   1_556  A
C1161      H1168   1.085       .  S
C1162      C1163   1.413   1_565  A
C1163      C1164   1.404       .  A
C1163     Br1170   1.917       .  S
C1164      C1165   1.402   1_556  A
C1164      H1169   1.083       .  S
C1165      C1166   1.434   1_545  A
C1166     Br1167   1.931       .  S
C1171      C1172   1.405       .  A
C1171      C1176   1.400   1_556  A
C1171      H1178   1.083       .  S
C1172      C1173   1.419       .  A
C1173      C1174   1.414   1_556  A
C1173     Br1180   1.917       .  S
C1174      C1175   1.406       .  A
C1174      H1179   1.083       .  S
C1175      C1176   1.416       .  A
C1176     Br1177   1.924       .  S
C1181      C1182   1.407       .  A
C1181      C1186   1.411       .  A
C1181      H1188   1.083       .  S
C1182      C1183   1.411       .  A
C1183      C1184   1.409       .  A
C1183     Br1190   1.917       .  S
C1184      C1185   1.406       .  A
C1184      H1189   1.083       .  S
C1185      C1186   1.411       .  A
C1186     Br1187   1.917       .  S
C1191      C1192   1.409       .  A
C1191      C1196   1.413       .  A
C1191      H1198   1.083       .  S
C1192      C1193   1.412       .  A
C1193      C1194   1.411       .  A
C1193     Br1200   1.918       .  S
C1194      C1195   1.408       .  A
C1194      H1199   1.083       .  S
C1195      C1196   1.412       .  A
C1196     Br1197   1.917       .  S
C1201      C1202   1.416       .  A
C1201      C1206   1.402       .  A
C1201      H1208   1.084       .  S
C1202      C1203   1.401       .  A
C1203      C1204   1.405       .  A
C1203     Br1210   1.916       .  S
C1204      C1205   1.414       .  A
C1204      H1209   1.084       .  S
C1205      C1206   1.398       .  A
C1206     Br1207   1.919       .  S
C1211      C1212   1.410       .  A
C1211      C1216   1.399       .  A
C1211      H1218   1.084       .  S
C1212      C1213   1.415       .  A
C1213      C1214   1.416       .  A
C1213     Br1220   1.907       .  S
C1214      C1215   1.409       .  A
C1214      H1219   1.083       .  S
C1215      C1216   1.408       .  A
C1216     Br1217   1.921       .  S
C1221      C1222   1.407   1_556  A
C1221      C1226   1.413       .  A
C1221      H1228   1.083       .  S
C1222      C1223   1.416       .  A
C1223      C1224   1.402   1_554  A
C1223     Br1230   1.921       .  S
C1224      C1225   1.400       .  A
C1224      H1229   1.084       .  S
C1225      C1226   1.415       .  A
C1226     Br1227   1.917       .  S
C1231      C1232   1.411       .  A
C1231      C1236   1.381   1_554  A
C1231      H1238   1.084       .  S
C1232      C1233   1.413   1_554  A
C1233      C1234   1.416       .  A
C1233     Br1240   1.914       .  S
C1234      C1235   1.413       .  A
C1234      H1239   1.082       .  S
C1235      C1236   1.401       .  A
C1236     Br1237   1.928       .  S
C1241      C1242   1.403       .  A
C1241      C1246   1.401       .  A
C1241      H1248   1.084       .  S
C1242      C1243   1.405       .  A
C1243      C1244   1.397       .  A
C1243     Br1250   1.918       .  S
C1244      C1245   1.402       .  A
C1244      H1249   1.084       .  S
C1245      C1246   1.406       .  A
C1246     Br1247   1.915       .  S
C1251      C1252   1.404       .  A
C1251      C1256   1.397       .  A
C1251      H1258   1.084       .  S
C1252      C1253   1.409       .  A
C1253      C1254   1.404       .  A
C1253     Br1260   1.918   1_455  S
C1254      C1255   1.407       .  A
C1254      H1259   1.084       .  S
C1255      C1256   1.410       .  A
C1256     Br1257   1.921       .  S
C1261      C1262   1.402       .  A
C1261      C1266   1.403       .  A
C1261      H1268   1.084       .  S
C1262      C1263   1.405       .  A
C1263      C1264   1.401       .  A
C1263     Br1270   1.918       .  S
C1264      C1265   1.407       .  A
C1264      H1269   1.083       .  S
C1265      C1266   1.417       .  A
C1266     Br1267   1.921       .  S
C1271      C1272   1.403       .  A
C1271      C1276   1.387       .  A
C1271      H1278   1.085       .  S
C1272      C1273   1.411       .  A
C1273      C1274   1.407       .  A
C1273     Br1280   1.917       .  S
C1274      C1275   1.407       .  A
C1274      H1279   1.083       .  S
C1275      C1276   1.405       .  A
C1276     Br1277   1.924       .  S
C1281      C1282   1.409   1_565  A
C1281      C1286   1.408       .  A
C1281      H1288   1.084       .  S
C1282      C1283   1.404   1_554  A
C1283      C1284   1.403   1_545  A
C1283     Br1290   1.918       .  S
C1284      C1285   1.409       .  A
C1284      H1289   1.083   1_565  S
C1285      C1286   1.411   1_556  A
C1286     Br1287   1.918       .  S
C1291      C1292   1.416       .  A
C1291      C1296   1.390       .  A
C1291      H1298   1.083       .  S
C1292      C1293   1.403   1_556  A
C1293      C1294   1.399       .  A
C1293     Br1300   1.918       .  S
C1294      C1295   1.415       .  A
C1294      H1299   1.083       .  S
C1295      C1296   1.401   1_554  A
C1296     Br1297   1.922       .  S
C1301      C1302   1.413       .  A
C1301      C1306   1.386       .  A
C1301      H1308   1.082       .  S
C1302      C1303   1.411       .  A
C1303      C1304   1.410       .  A
C1303     Br1310   1.915       .  S
C1304      C1305   1.407       .  A
C1304      H1309   1.083       .  S
C1305      C1306   1.396       .  A
C1306     Br1307   1.923       .  S
C1311      C1312   1.404       .  A
C1311      C1316   1.399       .  A
C1311      H1318   1.083       .  S
C1312      C1313   1.413       .  A
C1313      C1314   1.391       .  A
C1313     Br1320   1.923       .  S
C1314      C1315   1.396       .  A
C1314      H1319   1.084       .  S
C1315      C1316   1.404       .  A
C1316     Br1317   1.917       .  S
C1321      C1322   1.407       .  A
C1321      C1326   1.407       .  A
C1321      H1328   1.083       .  S
C1322      C1323   1.403       .  A
C1323      C1324   1.395       .  A
C1323     Br1330   1.920       .  S
C1324      C1325   1.407       .  A
C1324      H1329   1.084       .  S
C1325      C1326   1.406       .  A
C1326     Br1327   1.916       .  S
C1331      C1332   1.401       .  A
C1331      C1336   1.402   1_455  A
C1331      H1338   1.083       .  S
C1332      C1333   1.410       .  A
C1333      C1334   1.392   1_455  A
C1333     Br1340   1.922       .  S
C1334      C1335   1.398       .  A
C1334      H1339   1.084       .  S
C1335      C1336   1.410       .  A
C1336     Br1337   1.918       .  S
C1341      C1342   1.393       .  A
C1341      C1346   1.392       .  A
C1341      H1348   1.084       .  S
C1342      C1343   1.422       .  A
C1343      C1344   1.398       .  A
C1343     Br1350   1.921       .  S
C1344      C1345   1.396       .  A
C1344      H1349   1.084       .  S
C1345      C1346   1.425       .  A
C1346     Br1347   1.927       .  S
C1351      C1352   1.407       .  A
C1351      C1356   1.411       .  A
C1351      H1358   1.084       .  S
C1352      C1353   1.403       .  A
C1353      C1354   1.393       .  A
C1353     Br1360   1.922       .  S
C1354      C1355   1.410       .  A
C1354      H1359   1.083       .  S
C1355      C1356   1.416       .  A
C1356     Br1357   1.917       .  S
