geometry optimzed in LAMMPS
_audit_creation_date              2020-12-01 
_audit_creation_method            'lammps2cif' 
_symmetry_space_group_name_H-M    'P1' 
_symmetry_Int_Tables_number       1 
_symmetry_cell_setting            triclinic 
loop_ 
_symmetry_equiv_pos_as_xyz 
  x,y,z 
_cell_length_a                    37.76861896 
_cell_length_b                    44.36074870401372 
_cell_length_c                    37.13653382767208 
_cell_angle_alpha                 89.95177494834537 
_cell_angle_beta                  90.07683082165035 
_cell_angle_gamma                 126.42772453485287 
loop_ 
_atom_site_label 
_atom_site_type_symbol 
_atom_site_fract_x 
_atom_site_fract_y 
_atom_site_fract_z 
_atom_site_charge 
C1          C  0.08449911  0.11946974  0.71882634     0.04000
C2          C  0.09969160  0.15709614  0.71938923    -0.12100
C3          C  0.11378593  0.17743865  0.75174539     0.01500
C4          C  0.11174842  0.15995802  0.78400439    -0.10700
C5          C  0.09587423  0.12222256  0.78414567     0.04000
C6          C  0.08264274  0.10237156  0.75144876    -0.10100
H7          H  0.10157480  0.17090421  0.69461983     0.09600
H8          H  0.12340362  0.17597430  0.80880143     0.07100
H9          H  0.07143003  0.07352724  0.75139392     0.07000
C10         C  0.07470075  0.31283024  0.71463945     0.04000
C11         C  0.06358519  0.32136277  0.74728501    -0.12100
C12         C  0.07277227  0.31213269  0.78052279     0.01500
C13         C  0.09242383  0.29347328  0.78084325    -0.10700
C14         C  0.10338125  0.28463570  0.74840918     0.04000
C15         C  0.09413913  0.29401361  0.71539580    -0.10100
H16         H  0.04975426  0.33689961  0.74685048     0.09600
H17         H  0.10155668  0.28780263  0.80626278     0.07100
H18         H  0.10450128  0.28871867  0.69047758     0.07000
C19         C  0.20121826  0.28190824  0.75153039     0.04000
C20         C  0.17574434  0.29530642  0.75027142    -0.12100
C21         C  0.12966080  0.27010092  0.74918886     0.01500
C22         C  0.10910516  0.23137990  0.74928246    -0.10700
C23         C  0.13458491  0.21792345  0.75130028     0.04000
C24         C  0.18057354  0.24327953  0.75250885    -0.10100
H25         H  0.19171441  0.32523835  0.74994731     0.09600
H26         H  0.07353557  0.21187413  0.74823289     0.07100
H27         H  0.20031949  0.23292713  0.75376169     0.07000
C28         C  0.31874533  0.34056954  0.71872555     0.04000
C29         C  0.34139967  0.35445083  0.75146195    -0.12100
C30         C  0.31869619  0.34558452  0.78418474     0.01500
C31         C  0.27251283  0.32238501  0.78392348    -0.10700
C32         C  0.24948660  0.30806697  0.75136031     0.04000
C33         C  0.27259031  0.31729979  0.71877526    -0.10100
H34         H  0.37705124  0.37186199  0.75141710     0.09600
H35         H  0.25443128  0.31522512  0.80894677     0.07100
H36         H  0.25469405  0.30579227  0.69369056     0.07000
Zr37       Zr  0.04882398  0.44898227  0.07041848     2.17500
O38         O  0.50690750  0.43391369  0.12588082    -0.50400
O39         O  0.11988382  0.48206418  0.09998341    -0.73600
O40         O  0.03715787  0.39514860  0.10031250    -0.80400
O41         O  0.03578901  0.02761174  0.05921382    -0.82200
O42         O  0.03614329  0.35669892  0.05906519    -0.77800
O43         O  0.04409948  0.49492713  0.10059383    -0.89400
O44         O  0.17490046  0.00960013  0.05916397    -0.75400
O45         O  0.09231545  0.43714513  0.03584688    -0.84900
O46         O  0.09625670  0.50410194  0.03569271    -0.84600
O47         O  0.99710229  0.39374562  0.03600122    -0.71300
O48         O  0.00082447  0.45573683  0.03537533    -0.83500
Zr49       Zr  0.04161366  0.44537095  0.92978427     2.26400
Zr50       Zr  0.04142346  0.38305947  0.99987887     2.06300
Zr51       Zr  0.04811896  0.01071601  0.00015211     2.10000
Zr52       Zr  0.13931028  0.49202505  0.00056294     1.78800
O53         O  0.49266865  0.02117644  0.99303526    -0.92300
O54         O  0.18561387  0.47054646  0.00165751    -0.40100
O55         O  0.09322118  0.50033267  0.96421457    -0.76700
O56         O  0.08991970  0.43816483  0.96447298    -0.95400
O57         O  0.99392387  0.38985006  0.96376503    -0.88700
O58         O  0.99771106  0.45674061  0.96422026    -0.91500
C59         C  0.16075005  0.50217476  0.09124465     1.02200
C60         C  0.03857532  0.01962950  0.09195095     1.15100
C61         C  0.03357947  0.36546950  0.09143501     1.05900
O62         O  0.09415938  0.36854499  0.00380654    -0.93700
O63         O  0.04864086  0.36243909  0.94081034    -0.89400
O64         O  0.05118217  0.40212887  0.90036119    -0.82600
C65         C  0.05258281  0.37478733  0.90856003     1.12600
O66         O  0.40405654  0.37744272  0.05300354    -0.95700
Zr67       Zr  0.45077319  0.40171325  0.99963520     1.88900
O68         O  0.47070727  0.41618442  0.90092799    -0.72300
O69         O  0.47844920  0.31721653  0.99618903    -0.51600
O70         O  0.40305617  0.33341858  0.99812587    -0.96300
O71         O  0.40384956  0.42255448  0.00194411    -0.53500
O72         O  0.41500456  0.38670916  0.94152174    -0.72800
C73         C  0.42987079  0.39644074  0.90937121     0.99500
O74         O  0.06813487  0.45193447  0.86842284    -0.61700
O75         O  0.10640712  0.07721720  0.00864084    -0.56500
O76         O  0.06618311  0.50426481  0.90184032    -0.93100
O77         O  0.06175870  0.04073856  0.94148993    -0.91600
O78         O  0.19231898  0.05977777  0.99750482    -0.91900
O79         O  0.18509474  0.01283471  0.94717265    -0.90700
C80         C  0.06907130  0.03375474  0.90987526     1.18300
H81         H  0.11464881  0.02603106  0.05080187     0.34300
H82         H  0.10804847  0.43487693  0.94911192     0.45100
H83         H  0.48102307  0.46208153  0.94933089     0.38700
H84         H  0.47797946  0.37273678  0.05180112     0.35100
H85         H  0.21577382  0.49346909  0.00591551     0.26900
H86         H  0.99006397  0.30375490  0.99132382     0.32900
H87         H  0.37454078  0.32645439  0.98877247     0.38800
H88         H  0.22029920  0.06492198  0.00598678     0.33200
H89         H  0.13023411  0.08266542  0.99227198     0.32100
H90         H  0.50903548  0.04823713  0.98776542     0.33800
H91         H  0.40759828  0.43447456  0.97831657     0.32800
H92         H  0.16697102  0.01296906  0.92796940     0.36800
H93         H  0.05055419  0.95665062  0.85309090     0.29500
H94         H  0.52404132  0.43221439  0.14491457     0.33700
H95         H  0.37346285  0.36296952  0.04388735     0.36600
H96         H  0.09494998  0.09019678  0.99764865     0.29200
H97         H  0.09861728  0.47521798  0.86821218     0.42100
H98         H  0.11543419  0.38574153  0.02248631     0.32100
H99         H  0.17779010  0.45607699  0.02429061     0.39700
H100        H  0.41872804  0.44369852  0.01920578     0.31600
H101        H  0.46409988  0.31099873  0.02008469     0.31700
H102        H  0.48007814  0.40801172  0.12255967     0.31900
Zr103      Zr  0.04310503  0.44816134  0.57012155     2.17500
O104        O  0.08811798  0.46942731  0.62448237    -0.50400
O105        O  0.47346783  0.41107395  0.60310971    -0.73600
O106        O  0.04700235  0.49862580  0.60088875    -0.80400
O107        O  0.05096458  0.36620163  0.55602209    -0.82200
O108        O  0.05599185  0.04121077  0.56046214    -0.77800
O109        O  0.05423419  0.40517129  0.59792433    -0.89400
O110        O  0.41802692  0.39034292  0.56302226    -0.75400
O111        O  0.99851845  0.45999269  0.53743134    -0.84900
O112        O  0.99466068  0.39293621  0.53552597    -0.84600
O113        O  0.09408665  0.50311794  0.53521903    -0.71300
O114        O  0.08980027  0.44094255  0.53331813    -0.83500
Zr115      Zr  0.04470547  0.45193319  0.42892190     2.26400
Zr116      Zr  0.04775173  0.01399388  0.50127371     2.06300
Zr117      Zr  0.04086721  0.38613016  0.49780691     2.10000
Zr118      Zr  0.45019149  0.40511959  0.50333516     1.78800
O119        O  0.09937111  0.37858719  0.49100722    -0.92300
O120        O  0.40413290  0.42672277  0.50028884    -0.40100
O121        O  0.99495500  0.39686044  0.46428319    -0.76700
O122        O  0.99820220  0.45920169  0.46589727    -0.95400
O123        O  0.09405627  0.50687260  0.46317378    -0.88700
O124        O  0.08942951  0.43991810  0.46136165    -0.91500
C125        C  0.43269651  0.39383137  0.59504663     1.02200
C126        C  0.05583467  0.37817955  0.58851961     1.15100
C127        C  0.05245280  0.02967896  0.59292192     1.05900
O128        O  0.49675425  0.02911622  0.50882577    -0.93700
O129        O  0.03933840  0.03488037  0.44335769    -0.89400
O130        O  0.04711375  0.50223729  0.40046254    -0.82600
C131        C  0.04291941  0.02791840  0.41054498     1.12600
O132        O  0.19073366  0.01986362  0.54581760    -0.95700
Zr133      Zr  0.13810107  0.49458247  0.49621369     1.88900
O134        O  0.11355621  0.48495342  0.39572738    -0.72300
O135        O  0.11119011  0.07935570  0.49588421    -0.51600
O136        O  0.18717366  0.06391427  0.49388050    -0.96300
O137        O  0.18533316  0.47408187  0.49338379    -0.53500
O138        O  0.17005764  0.00893872  0.43607246    -0.72800
C139        C  0.15449527  0.50304434  0.40387965     0.99500
O140        O  0.49414827  0.43204642  0.37821359    -0.61700
O141        O  0.48540812  0.31959504  0.50161066    -0.56500
O142        O  0.03402039  0.39953497  0.39719043    -0.93100
O143        O  0.03018678  0.35921407  0.43772163    -0.91600
O144        O  0.39794340  0.33722019  0.50676117    -0.91900
O145        O  0.39729155  0.37473826  0.45430815    -0.90700
C146        C  0.02874881  0.36899320  0.40539967     1.18300
H147        H  0.47703017  0.37155309  0.55161437     0.34300
H148        H  0.47955629  0.46281990  0.45133236     0.45100
H149        H  0.10542212  0.43497899  0.44512573     0.38700
H150        H  0.11294054  0.02464613  0.55096640     0.35100
H151        H  0.37524705  0.40556421  0.50981359     0.26900
H152        H  0.09934405  0.09380943  0.50036554     0.32900
H153        H  0.21390161  0.07021090  0.48132502     0.38800
H154        H  0.41089084  0.32775843  0.49152221     0.33200
H155        H  0.96141331  0.31343539  0.48461298     0.32100
H156        H  0.08398082  0.35116979  0.48963070     0.33800
H157        H  0.17319754  0.95577676  0.47576519     0.32800
H158        H  0.41528788  0.38540701  0.43219698     0.36800
H159        H  0.47124185  0.40500426  0.38238288     0.29500
H160        H  0.06959635  0.46847541  0.64396808     0.33700
H161        H  0.22021816  0.03654668  0.53467178     0.36600
H162        H  0.47084812  0.31509856  0.52519629     0.29200
H163        H  0.47821446  0.44318956  0.38204196     0.42100
H164        H  0.46991267  0.50993394  0.49242382     0.32100
H165        H  0.41600972  0.44623437  0.51914309     0.39700
H166        H  0.17498165  0.45573064  0.51322382     0.31600
H167        H  0.12955133  0.08419160  0.51728331     0.31700
H168        H  0.11348552  0.99735998  0.61899540     0.31900
C169        C  0.27204859  0.05426933  0.28166502     0.04000
C170        C  0.25067695  0.04014090  0.24851480    -0.12100
C171        C  0.27380137  0.05397354  0.21597391     0.01500
C172        C  0.31980914  0.07915036  0.21687641    -0.10700
C173        C  0.34189679  0.09161178  0.25005972     0.04000
C174        C  0.31802918  0.07986498  0.28240676    -0.10100
H175        H  0.21522038  0.01952449  0.24803031     0.09600
H176        H  0.33835993  0.09002318  0.19203421     0.07100
H177        H  0.33512967  0.09107208  0.30784425     0.07000
C178        C  0.01336047  0.08341318  0.28347019     0.04000
C179        C  0.02085617  0.07162427  0.25107958    -0.12100
C180        C  0.01182160  0.08055132  0.21762204     0.01500
C181        C  0.49336349  0.10023623  0.21663557    -0.10700
C182        C  0.48510079  0.11141867  0.24888577     0.04000
C183        C  0.49634866  0.10396953  0.28189258    -0.10100
H184        H  0.03280782  0.05466263  0.25193066     0.09600
H185        H  0.48491855  0.10655143  0.19125053     0.07100
H186        H  0.49000925  0.11295993  0.30662554     0.07000
C187        C  0.39002731  0.11738391  0.25074162     0.04000
C188        C  0.41441033  0.10305486  0.24900148    -0.12100
C189        C  0.46042085  0.12734538  0.24864580     0.01500
C190        C  0.48216969  0.16621558  0.24973591    -0.10700
C191        C  0.45773166  0.18067073  0.25152135     0.04000
C192        C  0.41163425  0.15614523  0.25219243    -0.10100
H193        H  0.39758809  0.07299251  0.24816914     0.09600
H194        H  0.01788055  0.18502210  0.24884988     0.07100
H195        H  0.39263885  0.16721039  0.25321445     0.07000
C196        C  0.00404892  0.27875376  0.28170434     0.04000
C197        C  0.98662342  0.24064510  0.28285270    -0.12100
C198        C  0.97992212  0.22107446  0.25082661     0.01500
C199        C  0.98971741  0.23928208  0.21746769    -0.10700
C200        C  0.00637160  0.27708275  0.21607612     0.04000
C201        C  0.01505943  0.29686435  0.24822729    -0.10100
H202        H  0.97672970  0.22585766  0.30833761     0.09600
H203        H  0.98211299  0.22355684  0.19273256     0.07100
H204        H  0.02878960  0.32633634  0.24697403     0.07000
C205        C  0.99881095  0.34359555  0.34379529     0.24500
C206        C  0.01991662  0.34353728  0.37509938    -0.23600
C207        C  0.03324784  0.31986811  0.37635212     0.19400
C208        C  0.02782291  0.29843096  0.34618879     0.24400
C209        C  0.00776830  0.29940968  0.31467951    -0.23600
C210        C  0.99237169  0.32153694  0.31423400     0.19300
F211        F  0.97093505  0.32190974  0.28501576    -0.13500
F212        F  0.98382968  0.36479470  0.34170123    -0.15900
F213        F  0.04423140  0.27827581  0.34715400    -0.15900
F214        F  0.05328871  0.31868851  0.40612147    -0.13500
C215        C  0.18125573  0.03400535  0.34375977     0.24500
C216        C  0.18708384  0.01815219  0.37381032    -0.23600
C217        C  0.22317498  0.01641936  0.37449851     0.19400
C218        C  0.25207776  0.02938035  0.34509629     0.24400
C219        C  0.24508370  0.04402210  0.31460703    -0.23600
C220        C  0.20994177  0.04689150  0.31461372     0.19300
F221        F  0.20318335  0.06212171  0.28612649    -0.13500
F222        F  0.14781131  0.03729919  0.34261510    -0.15900
F223        F  0.28554982  0.02602648  0.34570662    -0.15900
F224        F  0.22919631  0.00052129  0.40280511    -0.13500
C225        C  0.99922640  0.04433727  0.37767781     0.24500
C226        C  0.03855554  0.04802183  0.38163667    -0.23600
C227        C  0.07080776  0.06603139  0.35476368     0.19400
C228        C  0.06322122  0.07884773  0.32350892     0.24400
C229        C  0.02298815  0.07360372  0.31847981    -0.23600
C230        C  0.49213513  0.05752183  0.34585927     0.19300
F231        F  0.45277740  0.05164636  0.34147087    -0.13500
F232        F  0.46671954  0.02552513  0.40203395    -0.15900
F233        F  0.09498156  0.09588303  0.29783727    -0.15900
F234        F  0.10935045  0.07043953  0.35852531    -0.13500
C235        C  0.98712515  0.31129138  0.17782766     0.24500
C236        C  0.00986920  0.29541843  0.18166562    -0.23600
C237        C  0.03732065  0.29931789  0.15363830     0.19400
C238        C  0.04432118  0.32119171  0.12331774     0.24400
C239        C  0.02378244  0.33918691  0.12086355    -0.23600
C240        C  0.99396852  0.33287287  0.14778840     0.19300
F241        F  0.97128370  0.34766999  0.14501368    -0.13500
F242        F  0.95851246  0.30623718  0.20355612    -0.15900
F243        F  0.07273168  0.32630683  0.09740102    -0.15900
F244        F  0.05887136  0.28351092  0.15643707    -0.13500
C245        C  0.06006937  0.07301853  0.17828149     0.24500
C246        C  0.01978796  0.06760834  0.18375656    -0.23600
C247        C  0.48794684  0.04991426  0.15598193     0.19400
C248        C  0.49491166  0.03563430  0.12531685     0.24400
C249        C  0.03327820  0.03883585  0.12161660    -0.23600
C250        C  0.06657638  0.05857501  0.14763057     0.19300
F251        F  0.10564508  0.06404045  0.14318324    -0.13500
F252        F  0.09322646  0.09235484  0.20264273    -0.15900
F253        F  0.46253334  0.01691260  0.10026151    -0.15900
F254        F  0.44867433  0.04427425  0.15983815    -0.13500
C255        C  0.23135866  0.02075332  0.12042364     0.24500
C256        C  0.19297541  0.01915615  0.12125691    -0.23600
C257        C  0.18429074  0.03242479  0.15171162     0.19400
C258        C  0.21217080  0.04565936  0.18130586     0.24400
C259        C  0.24860216  0.04450537  0.18197524    -0.23600
C260        C  0.25871047  0.03281337  0.15088116     0.19300
F261        F  0.29349911  0.03119200  0.15059140    -0.13500
F262        F  0.24102746  0.00874845  0.09100419    -0.15900
F263        F  0.20299819  0.05921017  0.20971202    -0.15900
F264        F  0.14888081  0.53232220  0.15243834    -0.13500
C265        C  0.40502080  0.35794571  0.65260475     0.24500
C266        C  0.40063001  0.37701762  0.62481645    -0.23600
C267        C  0.36643326  0.38105952  0.62646978     0.19400
C268        C  0.33851614  0.36795549  0.65644104     0.24400
C269        C  0.34415556  0.35026536  0.68494430    -0.23600
C270        C  0.37695336  0.34458371  0.68231950     0.19300
F271        F  0.38211261  0.32640479  0.70885898    -0.13500
F272        F  0.43646062  0.35212889  0.65090462    -0.15900
F273        F  0.30766685  0.37442853  0.65852409    -0.15900
F274        F  0.36162883  0.39953808  0.60002564    -0.13500
C275        C  0.40843990  0.40931808  0.85123531     0.24500
C276        C  0.39840260  0.38446389  0.87964073    -0.23600
C277        C  0.35984334  0.34759925  0.87802709     0.19400
C278        C  0.33303139  0.33507685  0.84741673     0.24400
C279        C  0.34384112  0.35961380  0.81837288    -0.23600
C280        C  0.38118250  0.39714285  0.82108459     0.19300
F281        F  0.39183830  0.42194479  0.79416351    -0.13500
F282        F  0.44499113  0.44541062  0.85251592    -0.15900
F283        F  0.29831415  0.29834928  0.84522102    -0.15900
F284        F  0.34979324  0.32299087  0.90496844    -0.13500
C285        C  0.09615051  0.36772109  0.67715677     0.24500
C286        C  0.07217607  0.32871956  0.68044569    -0.23600
C287        C  0.04657746  0.30580288  0.65115101     0.19400
C288        C  0.04240293  0.32168061  0.62010476     0.24400
C289        C  0.06442527  0.36070194  0.61792104    -0.23600
C290        C  0.09271671  0.38353435  0.64615923     0.19300
F291        F  0.11713413  0.42144709  0.64378054    -0.13500
F292        F  0.12319180  0.39064811  0.70410310    -0.15900
F293        F  0.01530774  0.29888120  0.59312952    -0.15900
F294        F  0.02439442  0.26807969  0.65319246    -0.13500
C295        C  0.09185277  0.36612143  0.81844231     0.24500
C296        C  0.06829509  0.32722198  0.81447736    -0.23600
C297        C  0.04196417  0.30366226  0.84320808     0.19400
C298        C  0.03772412  0.31886424  0.87474244     0.24400
C299        C  0.06036808  0.35784464  0.87806800    -0.23600
C300        C  0.08848297  0.38125161  0.84998770     0.19300
F301        F  0.11314383  0.41910504  0.85315274    -0.13500
F302        F  0.11872809  0.38966561  0.79176004    -0.15900
F303        F  0.50915362  0.29566514  0.90123471    -0.15900
F304        F  0.01918240  0.26595563  0.84017605    -0.13500
C305        C  0.10128417  0.11407315  0.65426755     0.24500
C306        C  0.07296342  0.09825710  0.68430594    -0.23600
C307        C  0.03541349  0.06070452  0.68217626     0.19400
C308        C  0.02798218  0.03881614  0.65192412     0.24400
C309        C  0.05749667  0.05406986  0.62283317    -0.23600
C310        C  0.09360039  0.09214792  0.62387104     0.19300
F311        F  0.12320376  0.10746974  0.59651278    -0.12100
F312        F  0.13800676  0.15006159  0.65512218    -0.15900
F313        F  0.49436126  0.00323636  0.65143735    -0.15900
F314        F  0.50749104  0.04628855  0.70907259    -0.13500
C315        C  0.10536016  0.06222799  0.85044362     0.24500
C316        C  0.08096392  0.06063071  0.88007878    -0.23600
C317        C  0.06538632  0.08264229  0.87927737     0.19400
C318        C  0.07131726  0.10355764  0.84850182     0.24400
C319        C  0.09345672  0.10330379  0.81815518    -0.23600
C320        C  0.11140101  0.08319690  0.81987304     0.19300
F321        F  0.13457219  0.08356289  0.79172107    -0.13500
F322        F  0.12337699  0.04332351  0.85090640    -0.15900
F323        F  0.05308573  0.12225990  0.84758288    -0.15900
F324        F  0.04204164  0.58215379  0.90652972    -0.13500
C325        C  0.08666076  0.61984965  0.71793801     0.04000
C326        C  0.10176473  0.65745986  0.71862365    -0.12100
C327        C  0.11442565  0.67731120  0.75125968     0.01500
C328        C  0.11157539  0.65945289  0.78349742    -0.10700
C329        C  0.09623907  0.62184709  0.78336997     0.04000
C330        C  0.08415348  0.60246230  0.75050089    -0.10100
H331        H  0.10433379  0.67152657  0.69383183     0.09600
H332        H  0.12225472  0.67510969  0.80850410     0.07100
H333        H  0.07309550  0.57366076  0.75028006     0.07000
C334        C  0.07579231  0.81382237  0.71493335     0.04000
C335        C  0.06461225  0.82222826  0.74760362    -0.12100
C336        C  0.07269004  0.81205088  0.78082014     0.01500
C337        C  0.09145168  0.79264311  0.78109949    -0.10700
C338        C  0.10283889  0.78417083  0.74863976     0.04000
C339        C  0.09465480  0.79451297  0.71566040    -0.10100
H340        H  0.05137584  0.83823364  0.74723690     0.09600
H341        H  0.09981458  0.78629539  0.80652890     0.07100
H342        H  0.10527906  0.78945066  0.69076040     0.07000
C343        C  0.20099753  0.78186569  0.75132032     0.04000
C344        C  0.17528120  0.79502589  0.75010313    -0.12100
C345        C  0.12919735  0.76965102  0.74942653     0.01500
C346        C  0.10890916  0.73093298  0.74965844    -0.10700
C347        C  0.13471799  0.71772864  0.75124160     0.04000
C348        C  0.18066220  0.74330615  0.75234948    -0.10100
H349        H  0.19106892  0.82492570  0.74960229     0.09600
H350        H  0.07335257  0.71125735  0.74882595     0.07100
H351        H  0.20064326  0.73317473  0.75351832     0.07000
C352        C  0.31865632  0.84025727  0.71885734     0.04000
C353        C  0.34112359  0.85403003  0.75169341    -0.12100
C354        C  0.31822708  0.84539795  0.78430496     0.01500
C355        C  0.27207501  0.82239004  0.78388182    -0.10700
C356        C  0.24923371  0.80815776  0.75124206     0.04000
C357        C  0.27249457  0.81726962  0.71874952    -0.10100
H358        H  0.37677455  0.87135766  0.75182203     0.09600
H359        H  0.25387753  0.81531886  0.80883406     0.07100
H360        H  0.25469727  0.80583953  0.69361566     0.07000
Zr361      Zr  0.04894605  0.94922408  0.07044714     2.17500
O362        O  0.50977862  0.93499426  0.12709824    -0.50400
O363        O  0.11982434  0.98236228  0.10038028    -0.73600
O364        O  0.03703610  0.89506168  0.09946092    -0.80400
O365        O  0.03589030  0.52779104  0.05859168    -0.82200
O366        O  0.03549693  0.85621395  0.05845017    -0.77800
O367        O  0.04555848  0.99568415  0.10116800    -0.89400
O368        O  0.17514196  0.50960766  0.05885072    -0.75400
O369        O  0.09205374  0.93698719  0.03584231    -0.84900
O370        O  0.09620229  0.00427192  0.03566739    -0.84600
O371        O  0.99708897  0.89422293  0.03577647    -0.71300
O372        O  0.00051629  0.95583255  0.03576691    -0.83500
Zr373      Zr  0.04184276  0.94557380  0.92977462     2.26400
Zr374      Zr  0.04095548  0.88305183  0.99965433     2.06300
Zr375      Zr  0.04856997  0.51079330  0.99994259     2.10000
Zr376      Zr  0.13920152  0.99198459  0.00080703     1.78800
O377        O  0.49305162  0.52188475  0.99241937    -0.92300
O378        O  0.18663632  0.97163931  0.00229856    -0.40100
O379        O  0.09313041  0.00042702  0.96455748    -0.76700
O380        O  0.09001474  0.93819731  0.96444006    -0.95400
O381        O  0.99375793  0.89010994  0.96356004    -0.88700
O382        O  0.99780546  0.95699540  0.96391342    -0.91500
C383        C  0.16066350  0.00252486  0.09159441     1.02200
C384        C  0.03766378  0.51919243  0.09129742     1.15100
C385        C  0.03314425  0.86524545  0.09074615     1.05900
O386        O  0.09321223  0.86798914  0.00367779    -0.93700
O387        O  0.04745984  0.86219917  0.94049482    -0.89400
O388        O  0.05155925  0.90267199  0.90014672    -0.82600
C389        C  0.05209070  0.87490133  0.90832048     1.12600
O390        O  0.40057047  0.87755427  0.05066419    -0.95700
Zr391      Zr  0.45066561  0.90263484  0.99934044     1.88900
O392        O  0.47108748  0.91752650  0.90017938    -0.72300
O393        O  0.47435283  0.81787814  0.99441159    -0.51600
O394        O  0.40261958  0.83438592  0.99715464    -0.96300
O395        O  0.40311672  0.92281532  0.00255812    -0.53500
O396        O  0.41566715  0.88780351  0.94099859    -0.72800
C397        C  0.43027995  0.89756857  0.90882004     0.99500
O398        O  0.06782466  0.95136169  0.86830804    -0.61700
O399        O  0.10903629  0.57661814  0.00908474    -0.56500
O400        O  0.06620234  0.00428640  0.90180853    -0.93100
O401        O  0.06265797  0.54128587  0.94141839    -0.91600
O402        O  0.19203828  0.55985938  0.99601286    -0.91900
O403        O  0.18468492  0.51174466  0.94667297    -0.90700
C404        C  0.06949971  0.53397357  0.90976762     1.18300
H405        H  0.11467714  0.52581791  0.05088037     0.34300
H406        H  0.10814582  0.93486151  0.94912452     0.45100
H407        H  0.48161937  0.96324095  0.94908914     0.38700
H408        H  0.47685528  0.87275119  0.05151881     0.35100
H409        H  0.21645433  0.99475640  0.00718770     0.26900
H410        H  0.98567572  0.80395926  0.98752478     0.32900
H411        H  0.37511083  0.82771577  0.98574276     0.38800
H412        H  0.21906206  0.56583456  0.00777223     0.33200
H413        H  0.13255355  0.58133778  0.99276140     0.32100
H414        H  0.50979990  0.54949532  0.99254778     0.33800
H415        H  0.40872572  0.93693003  0.98001746     0.32800
H416        H  0.16637462  0.51148763  0.92738122     0.36800
H417        H  0.05089690  0.45728162  0.85323338     0.29500
H418        H  0.52690668  0.93219585  0.14521843     0.33700
H419        H  0.37059485  0.86062301  0.04038045     0.36600
H420        H  0.09883455  0.59061628  0.99822008     0.29200
H421        H  0.09834758  0.97458008  0.86784643     0.42100
H422        H  0.11685839  0.88751944  0.01964556     0.32100
H423        H  0.17851166  0.95677424  0.02469470     0.39700
H424        H  0.41624228  0.94215474  0.02167395     0.31600
H425        H  0.46257225  0.81038372  0.01919329     0.31700
H426        H  0.48195511  0.90961348  0.12407691     0.31900
Zr427      Zr  0.04292961  0.94871353  0.57026512     2.17500
O428        O  0.08947077  0.97066818  0.62377085    -0.50400
O429        O  0.47375216  0.91118357  0.60304252    -0.73600
O430        O  0.04572548  0.99856495  0.60145188    -0.80400
O431        O  0.05139644  0.86725428  0.55627584    -0.82200
O432        O  0.05800566  0.54167566  0.56009614    -0.77800
O433        O  0.05424829  0.90592754  0.59834664    -0.89400
O434        O  0.41813734  0.88986383  0.56299432    -0.75400
O435        O  0.99792322  0.95997807  0.53744069    -0.84900
O436        O  0.99494699  0.89330222  0.53575627    -0.84600
O437        O  0.09372253  0.00362721  0.53519058    -0.71300
O438        O  0.08993856  0.94198886  0.53322393    -0.83500
Zr439      Zr  0.04512574  0.95257192  0.42870167     2.26400
Zr440      Zr  0.04855903  0.51397992  0.50125538     2.06300
Zr441      Zr  0.04144894  0.88704470  0.49771871     2.10000
Zr442      Zr  0.45056734  0.90544295  0.50328414     1.78800
O443        O  0.10032379  0.88027312  0.48939566    -0.92300
O444        O  0.40696474  0.92945919  0.50313041    -0.40100
O445        O  0.99551232  0.89762740  0.46416184    -0.76700
O446        O  0.99784594  0.95905994  0.46571434    -0.95400
O447        O  0.09387625  0.00758495  0.46309100    -0.88700
O448        O  0.08998023  0.94087499  0.46125927    -0.91500
C449        C  0.43290751  0.89374286  0.59505539     1.02200
C450        C  0.05610186  0.87908441  0.58885194     1.15100
C451        C  0.05438232  0.52998985  0.59243950     1.05900
O452        O  0.49546690  0.52901396  0.50724102    -0.93700
O453        O  0.04181439  0.53605656  0.44332578    -0.89400
O454        O  0.04849548  0.00337784  0.40050717    -0.82600
C455        C  0.04360848  0.52801484  0.41045651     1.12600
O456        O  0.18873563  0.51762966  0.54712958    -0.95700
Zr457      Zr  0.13831576  0.99564468  0.49608513     1.88900
O458        O  0.11419383  0.98536320  0.39573220    -0.72300
O459        O  0.11107317  0.57976095  0.49647017    -0.51600
O460        O  0.18782376  0.56278854  0.49508857    -0.96300
O461        O  0.18519112  0.97471128  0.49518483    -0.53500
O462        O  0.16944334  0.50896551  0.43613028    -0.72800
C463        C  0.15511056  0.00315376  0.40381588     0.99500
O464        O  0.49550657  0.93060014  0.37722472    -0.61700
O465        O  0.48360489  0.81923890  0.50158162    -0.56500
O466        O  0.03443983  0.90010409  0.39697368    -0.93100
O467        O  0.03046923  0.85989603  0.43771942    -0.91600
O468        O  0.39449291  0.83784870  0.50415714    -0.91900
O469        O  0.39929087  0.87801778  0.45290048    -0.90700
C470        C  0.02914061  0.86956507  0.40532406     1.18300
H471        H  0.47712232  0.87148587  0.55166541     0.34300
H472        H  0.48046942  0.96316699  0.45126697     0.45100
H473        H  0.10603860  0.93595658  0.44508306     0.38700
H474        H  0.11350988  0.52406977  0.55100332     0.35100
H475        H  0.37603580  0.90684319  0.50408696     0.26900
H476        H  0.09860293  0.59371401  0.50103653     0.32900
H477        H  0.21458535  0.56890436  0.48275250     0.38800
H478        H  0.40464460  0.82823963  0.52237372     0.33200
H479        H  0.00086708  0.80880442  0.50450350     0.32100
H480        H  0.08577452  0.85304473  0.49172238     0.33800
H481        H  0.17647247  0.45881629  0.47120987     0.32800
H482        H  0.41636757  0.89425228  0.43211324     0.36800
H483        H  0.47111614  0.90428536  0.38294595     0.29500
H484        H  0.07201773  0.97092747  0.64347780     0.33700
H485        H  0.21862165  0.53273057  0.53652352     0.36600
H486        H  0.46865834  0.81519687  0.52486986     0.29200
H487        H  0.48142295  0.94356483  0.37856478     0.42100
H488        H  0.46974143  0.00849486  0.49646068     0.32100
H489        H  0.41219916  0.94124387  0.52707084     0.39700
H490        H  0.17804041  0.96005054  0.51761012     0.31600
H491        H  0.12946375  0.58475944  0.51789779     0.31700
H492        H  0.11168200  0.49641658  0.62061328     0.31900
C493        C  0.27141489  0.55252604  0.28181850     0.04000
C494        C  0.24985844  0.53811261  0.24874054    -0.12100
C495        C  0.27283150  0.55184472  0.21608153     0.01500
C496        C  0.31877121  0.57737697  0.21677877    -0.10700
C497        C  0.34109548  0.59012863  0.24979414     0.04000
C498        C  0.31743789  0.57826266  0.28230006    -0.10100
H499        H  0.21438823  0.51752922  0.24839429     0.09600
H500        H  0.33711443  0.58839047  0.19185783     0.07100
H501        H  0.33470641  0.58966401  0.30763955     0.07000
C502        C  0.01509470  0.58445564  0.28298974     0.04000
C503        C  0.02225336  0.57265492  0.25041636    -0.12100
C504        C  0.01203600  0.58087401  0.21705520     0.01500
C505        C  0.49417675  0.60073395  0.21636415    -0.10700
C506        C  0.48538705  0.61157911  0.24855239     0.04000
C507        C  0.49699072  0.60447189  0.28157678    -0.10100
H508        H  0.03451723  0.55592905  0.25108729     0.09600
H509        H  0.48536324  0.60666300  0.19094144     0.07100
H510        H  0.49028162  0.61323942  0.30626555     0.07000
C511        C  0.38926366  0.61633314  0.25005460     0.04000
C512        C  0.41410566  0.60241810  0.24810716    -0.12100
C513        C  0.46012889  0.62701891  0.24818419     0.01500
C514        C  0.48141348  0.66579559  0.24963318    -0.10700
C515        C  0.45658090  0.67988213  0.25100016     0.04000
C516        C  0.41047224  0.65506441  0.25139224    -0.10100
H517        H  0.39762618  0.57241757  0.24703228     0.09600
H518        H  0.01715774  0.68523805  0.25014158     0.07100
H519        H  0.39119092  0.66586653  0.25228593     0.07000
C520        C  0.00432322  0.77891540  0.28171144     0.04000
C521        C  0.98602456  0.74055813  0.28254853    -0.12100
C522        C  0.97859166  0.72093911  0.25031670     0.01500
C523        C  0.98862025  0.73951896  0.21709979    -0.10700
C524        C  0.00656356  0.77766734  0.21602414     0.04000
C525        C  0.01578406  0.79731908  0.24836760    -0.10100
H526        H  0.97612031  0.72567937  0.30797586     0.09600
H527        H  0.98058183  0.72392939  0.19222081     0.07100
H528        H  0.03011798  0.82693846  0.24740757     0.07000
C529        C  0.99901657  0.84371810  0.34387962     0.24500
C530        C  0.02035892  0.84394624  0.37513000    -0.23600
C531        C  0.03373600  0.82028210  0.37644900     0.19400
C532        C  0.02856539  0.79893576  0.34621835     0.24400
C533        C  0.00817010  0.79959900  0.31478200    -0.23600
C534        C  0.99232347  0.82138797  0.31447052     0.19300
F535        F  0.97002472  0.82103528  0.28554637    -0.13500
F536        F  0.98385130  0.86477721  0.34177216    -0.15900
F537        F  0.04521395  0.77896613  0.34712286    -0.15900
F538        F  0.05323468  0.81879106  0.40643844    -0.13500
C539        C  0.18081506  0.53340323  0.34360609     0.24500
C540        C  0.18659275  0.51794990  0.37400443    -0.23600
C541        C  0.22281947  0.51642600  0.37521010     0.19400
C542        C  0.25144934  0.52854459  0.34568895     0.24400
C543        C  0.24457142  0.54285189  0.31483381    -0.23600
C544        C  0.20978219  0.54620081  0.31464298     0.19300
F545        F  0.20375476  0.56194722  0.28619157    -0.13500
F546        F  0.14719611  0.53642628  0.34196677    -0.15900
F547        F  0.28461889  0.52482398  0.34664984    -0.15900
F548        F  0.22931079  0.50162396  0.40424768    -0.13500
C549        C  0.00102810  0.54573691  0.37757673     0.24500
C550        C  0.03975408  0.54842739  0.38142099    -0.23600
C551        C  0.07166906  0.56554203  0.35422014     0.19400
C552        C  0.06453832  0.57878634  0.32297052     0.24400
C553        C  0.02471577  0.57433915  0.31798231    -0.23600
C554        C  0.49347229  0.55877702  0.34561607     0.19300
F555        F  0.45420856  0.55304711  0.34115370    -0.13500
F556        F  0.46785333  0.52715480  0.40193208    -0.15900
F557        F  0.09635692  0.59546662  0.29733366    -0.15900
F558        F  0.10950686  0.56876703  0.35773355    -0.13500
C559        C  0.98893852  0.81339053  0.17840807     0.24500
C560        C  0.01058337  0.79650624  0.18176364    -0.23600
C561        C  0.03699890  0.79948129  0.15322915     0.19400
C562        C  0.04353565  0.82091247  0.12266465     0.24400
C563        C  0.02362688  0.83940802  0.12045584    -0.23600
C564        C  0.99541159  0.83458797  0.14819439     0.19300
F565        F  0.97401513  0.85057867  0.14616173    -0.13500
F566        F  0.96155386  0.80955457  0.20469118    -0.15900
F567        F  0.07109029  0.82528120  0.09628699    -0.15900
F568        F  0.05796444  0.78314822  0.15566287    -0.13500
C569        C  0.05946545  0.57241205  0.17752646     0.24500
C570        C  0.01957629  0.56774066  0.18296946    -0.23600
C571        C  0.48786485  0.54939471  0.15682333     0.19400
C572        C  0.49421414  0.53499973  0.12593360     0.24400
C573        C  0.03238257  0.53838462  0.12088670    -0.23600
C574        C  0.06550937  0.55753797  0.14702959     0.19300
F575        F  0.10389983  0.56174160  0.14298137    -0.13500
F576        F  0.09278675  0.59145864  0.20176799    -0.15900
F577        F  0.46103633  0.51559873  0.10163609    -0.15900
F578        F  0.44818787  0.54271824  0.16196644    -0.13500
C579        C  0.23111447  0.51967171  0.12018702     0.24500
C580        C  0.19283343  0.51823256  0.12102001    -0.23600
C581        C  0.18405657  0.53130693  0.15155374     0.19400
C582        C  0.21139891  0.54375215  0.18142315     0.24400
C583        C  0.24764606  0.54238381  0.18210278    -0.23600
C584        C  0.25831871  0.53150110  0.15071573     0.19300
F585        F  0.29399490  0.53111448  0.14994994    -0.13500
F586        F  0.24112986  0.50819941  0.09054948    -0.15900
F587        F  0.20242792  0.55748325  0.20979172    -0.15900
F588        F  0.14838060  0.03239656  0.15300662    -0.13500
C589        C  0.40529793  0.85804122  0.65276750     0.24500
C590        C  0.40090015  0.87710540  0.62496900    -0.23600
C591        C  0.36676898  0.88125703  0.62677048     0.19400
C592        C  0.33858067  0.86778306  0.65661714     0.24400
C593        C  0.34422258  0.85007421  0.68509977    -0.23600
C594        C  0.37715988  0.84455581  0.68247126     0.19300
F595        F  0.38226374  0.82625953  0.70891471    -0.13500
F596        F  0.43689113  0.85240821  0.65111713    -0.15900
F597        F  0.30732207  0.87379216  0.65857092    -0.15900
F598        F  0.36233630  0.90026693  0.60067813    -0.13500
C599        C  0.40813875  0.90977299  0.85073750     0.24500
C600        C  0.39835917  0.88528466  0.87939796    -0.23600
C601        C  0.35933443  0.84856956  0.87848863     0.19400
C602        C  0.33251375  0.83556643  0.84785276     0.24400
C603        C  0.34319494  0.85975568  0.81852590    -0.23600
C604        C  0.38031946  0.89736715  0.82096793     0.19300
F605        F  0.39024640  0.92200080  0.79407880    -0.13500
F606        F  0.44493976  0.94575528  0.85142180    -0.15900
F607        F  0.29795372  0.79876038  0.84592703    -0.15900
F608        F  0.34868359  0.82457469  0.90620091    -0.13500
C609        C  0.09736993  0.86876334  0.67721416     0.24500
C610        C  0.07319914  0.82975301  0.68071327    -0.23600
C611        C  0.04690611  0.80675925  0.65168817     0.19400
C612        C  0.04268427  0.82259704  0.62060008     0.24400
C613        C  0.06486754  0.86162847  0.61824191    -0.23600
C614        C  0.09350727  0.88450347  0.64631510     0.19300
F615        F  0.11787166  0.92240319  0.64386554    -0.13500
F616        F  0.12491620  0.89177379  0.70389443    -0.15900
F617        F  0.01540690  0.79975230  0.59373169    -0.15900
F618        F  0.02399054  0.76898291  0.65408467    -0.13500
C619        C  0.09209514  0.86601994  0.81882756     0.24500
C620        C  0.06817886  0.82708728  0.81480881    -0.23600
C621        C  0.04121293  0.80355318  0.84335353     0.19400
C622        C  0.03686554  0.81887885  0.87472152     0.24400
C623        C  0.05973353  0.85786408  0.87794317    -0.23600
C624        C  0.08829208  0.88121483  0.85006783     0.19300
F625        F  0.11313318  0.91908139  0.85319642    -0.13500
F626        F  0.11976437  0.88956090  0.79248781    -0.15900
F627        F  0.50960964  0.79521066  0.90112679    -0.15900
F628        F  0.01799092  0.76580898  0.84035745    -0.13500
C629        C  0.10390589  0.61435803  0.65364445     0.24500
C630        C  0.07529364  0.59867335  0.68349018    -0.23600
C631        C  0.03760889  0.56115529  0.68136853     0.19400
C632        C  0.03031237  0.53918165  0.65130612     0.24400
C633        C  0.05987478  0.55439705  0.62231266    -0.23600
C634        C  0.09621327  0.59237864  0.62333094     0.19300
F635        F  0.12599945  0.60749761  0.59609448    -0.12100
F636        F  0.14084327  0.65023008  0.65463340    -0.15900
F637        F  0.49297524  0.50188873  0.65186569    -0.15900
F638        F  0.50711183  0.54436754  0.71032314    -0.13500
C639        C  0.10523892  0.56181503  0.85000459     0.24500
C640        C  0.08110837  0.56055541  0.87968690    -0.23600
C641        C  0.06515903  0.58229209  0.87849713     0.19400
C642        C  0.07088370  0.60287862  0.84749724     0.24400
C643        C  0.09315996  0.60256992  0.81729945    -0.23600
C644        C  0.11090492  0.58231227  0.81916611     0.19300
F645        F  0.13363980  0.58214298  0.79095028    -0.13500
F646        F  0.12351513  0.54313447  0.85072136    -0.15900
F647        F  0.05237785  0.62135332  0.84621627    -0.15900
F648        F  0.04234565  0.08240262  0.90744045    -0.13500
C649        C  0.58623360  0.12029184  0.71838487     0.04000
C650        C  0.60155252  0.15791206  0.71924015    -0.12100
C651        C  0.61472209  0.17772134  0.75187543     0.01500
C652        C  0.61177692  0.15977117  0.78404135    -0.10700
C653        C  0.59603550  0.12208120  0.78377168     0.04000
C654        C  0.58373192  0.10275842  0.75085719    -0.10100
H655        H  0.60396957  0.17206151  0.69455756     0.09600
H656        H  0.62266968  0.17538915  0.80907379     0.07100
H657        H  0.57254589  0.07392106  0.75053218     0.07000
C658        C  0.57449306  0.31279195  0.71520553     0.04000
C659        C  0.56401077  0.32151012  0.74807620    -0.12100
C660        C  0.57310684  0.31192413  0.78115226     0.01500
C661        C  0.59213809  0.29276124  0.78111009    -0.10700
C662        C  0.60278987  0.28397510  0.74846468     0.04000
C663        C  0.59355937  0.29365853  0.71560699    -0.10100
H664        H  0.55060072  0.33737895  0.74794299     0.09600
H665        H  0.60124127  0.28682152  0.80639037     0.07100
H666        H  0.60368087  0.28836972  0.69054595     0.07000
C667        C  0.70131544  0.28224382  0.75038502     0.04000
C668        C  0.67543709  0.29522928  0.74877270    -0.12100
C669        C  0.62936497  0.26973422  0.74891401     0.01500
C670        C  0.60920670  0.23111828  0.75020356    -0.10700
C671        C  0.63512281  0.21808092  0.75179056     0.04000
C672        C  0.68109520  0.24371165  0.75217784    -0.10100
H673        H  0.69107678  0.32508554  0.74764702     0.09600
H674        H  0.57363639  0.21137099  0.75006068     0.07100
H675        H  0.70114202  0.23364799  0.75341364     0.07000
C676        C  0.81912436  0.34090210  0.71832889     0.04000
C677        C  0.84147659  0.35446665  0.75124123    -0.12100
C678        C  0.81846752  0.34572819  0.78379383     0.01500
C679        C  0.77228373  0.32273833  0.78317763    -0.10700
C680        C  0.74956152  0.30871157  0.75042959     0.04000
C681        C  0.77297513  0.31810233  0.71800706    -0.10100
H682        H  0.87712011  0.37162175  0.75147999     0.09600
H683        H  0.75395649  0.31547227  0.80807793     0.07100
H684        H  0.75532076  0.30687896  0.69278363     0.07000
Zr685      Zr  0.54888402  0.44897968  0.07043300     2.17500
O686        O  0.00568579  0.43376353  0.12522839    -0.50400
O687        O  0.61972908  0.48262769  0.10008819    -0.73600
O688        O  0.53751709  0.39527777  0.10026776    -0.80400
O689        O  0.53806755  0.02866055  0.05926361    -0.82200
O690        O  0.53570285  0.35639580  0.05914403    -0.77800
O691        O  0.54471338  0.49503186  0.10099654    -0.89400
O692        O  0.67503053  0.00823886  0.05869718    -0.75400
O693        O  0.59240605  0.43711297  0.03584816    -0.84900
O694        O  0.59626352  0.50408923  0.03572354    -0.84600
O695        O  0.49693174  0.39379656  0.03607748    -0.71300
O696        O  0.50074876  0.45583245  0.03565136    -0.83500
Zr697      Zr  0.54141900  0.44534681  0.92998031     2.26400
Zr698      Zr  0.54116301  0.38301542  0.99998887     2.06300
Zr699      Zr  0.54921277  0.01124763  0.00016086     2.10000
Zr700      Zr  0.63926874  0.49207454  0.00049829     1.78800
O701        O  0.99019093  0.01877954  0.99199678    -0.92300
O702        O  0.68828877  0.47330797  0.00166777    -0.40100
O703        O  0.59317993  0.50036972  0.96416744    -0.76700
O704        O  0.58974399  0.43808736  0.96453455    -0.95400
O705        O  0.49355508  0.38980664  0.96396144    -0.88700
O706        O  0.49757530  0.45677089  0.96441642    -0.91500
C707        C  0.66051150  0.50293781  0.09124727     1.02200
C708        C  0.53916485  0.01957086  0.09193442     1.15100
C709        C  0.53349903  0.36539411  0.09152523     1.05900
O710        O  0.59448987  0.36920487  0.00349266    -0.93700
O711        O  0.54798921  0.36248743  0.94073481    -0.89400
O712        O  0.55098930  0.40233843  0.90022209    -0.82600
C713        C  0.55213942  0.37489268  0.90848478     1.12600
O714        O  0.90288899  0.37387198  0.05184663    -0.95700
Zr715      Zr  0.95094102  0.40152314  0.99937812     1.88900
O716        O  0.97065299  0.41615667  0.90058148    -0.72300
O717        O  0.97755826  0.31780202  0.99502908    -0.51600
O718        O  0.90356700  0.33334593  0.99543019    -0.96300
O719        O  0.90417634  0.42238486  0.00390892    -0.53500
O720        O  0.91509420  0.38705829  0.94133346    -0.72800
C721        C  0.92977879  0.39656372  0.90911879     0.99500
O722        O  0.56660090  0.45139737  0.86818981    -0.61700
O723        O  0.60904535  0.07733095  0.00880471    -0.56500
O724        O  0.56566349  0.50416715  0.90212603    -0.93100
O725        O  0.56315542  0.04169606  0.94163796    -0.91600
O726        O  0.68968617  0.05925159  0.99702734    -0.91900
O727        O  0.68587523  0.01269121  0.94722355    -0.90700
C728        C  0.56998141  0.03445737  0.90995240     1.18300
H729        H  0.61519261  0.02547143  0.05074954     0.34300
H730        H  0.60776571  0.43467764  0.94916933     0.45100
H731        H  0.98115636  0.46202636  0.94911057     0.38700
H732        H  0.97812622  0.37265276  0.05168477     0.35100
H733        H  0.71799135  0.49681257  0.00590678     0.26900
H734        H  0.49167911  0.30352113  0.99530937     0.32900
H735        H  0.87610792  0.32669358  0.98394826     0.38800
H736        H  0.71859294  0.06539022  0.00404189     0.33200
H737        H  0.63223565  0.08241366  0.99186362     0.32100
H738        H  0.00593258  0.04602312  0.98826265     0.33800
H739        H  0.91280111  0.43964371  0.98332907     0.32800
H740        H  0.66650909  0.00914524  0.92709210     0.36800
H741        H  0.55133380  0.95775761  0.85296994     0.29500
H742        H  0.02277351  0.43258404  0.14469069     0.33700
H743        H  0.87267001  0.36176880  0.04259236     0.36600
H744        H  0.59802517  0.09094124  0.99855284     0.29200
H745        H  0.59702864  0.47472317  0.86749819     0.42100
H746        H  0.62334369  0.39384167  0.00061843     0.32100
H747        H  0.68112128  0.45897664  0.02431681     0.39700
H748        H  0.91524342  0.43888898  0.02533994     0.31600
H749        H  0.96474348  0.31065128  0.01951865     0.31700
H750        H  0.97926682  0.40765068  0.12193133     0.31900
Zr751      Zr  0.54277122  0.44873994  0.57081848     2.17500
O752        O  0.58866606  0.46993473  0.62472295    -0.50400
O753        O  0.97416626  0.41034465  0.60275844    -0.73600
O754        O  0.54584814  0.49837300  0.60197209    -0.80400
O755        O  0.54983179  0.36672754  0.55722551    -0.82200
O756        O  0.55886115  0.04186410  0.56079954    -0.77800
O757        O  0.55371096  0.40592424  0.59917944    -0.89400
O758        O  0.91856116  0.38937741  0.56277514    -0.75400
O759        O  0.49779304  0.46023392  0.53808664    -0.84900
O760        O  0.49474558  0.39338590  0.53638895    -0.84600
O761        O  0.59349485  0.50360380  0.53566073    -0.71300
O762        O  0.58983787  0.44208308  0.53396502    -0.83500
Zr763      Zr  0.54462953  0.45245694  0.42916425     2.26400
Zr764      Zr  0.54882211  0.01422626  0.50148621     2.06300
Zr765      Zr  0.54130973  0.38714256  0.49853026     2.10000
Zr766      Zr  0.95026178  0.40508146  0.50271566     1.78800
O767        O  0.60149303  0.38177427  0.49201027    -0.92300
O768        O  0.90475365  0.42725418  0.50487269    -0.40100
O769        O  0.49523827  0.39753369  0.46482682    -0.76700
O770        O  0.49763893  0.45910963  0.46622473    -0.95400
O771        O  0.59354919  0.50742648  0.46341211    -0.88700
O772        O  0.58952701  0.44079502  0.46175521    -0.91500
C773        C  0.93338139  0.39302367  0.59480260     1.02200
C774        C  0.55486447  0.37871178  0.58974627     1.15100
C775        C  0.55471789  0.03018173  0.59327718     1.05900
O776        O  0.99517662  0.02841636  0.50860869    -0.93700
O777        O  0.54021733  0.03527694  0.44362056    -0.89400
O778        O  0.54794174  0.50301287  0.40033119    -0.82600
C779        C  0.54267837  0.02763591  0.41074913     1.12600
O780        O  0.68960464  0.01776601  0.54669169    -0.95700
Zr781      Zr  0.63789329  0.49554405  0.49655060     1.88900
O782        O  0.61384069  0.48517785  0.39633136    -0.72300
O783        O  0.61163745  0.07965293  0.49483401    -0.51600
O784        O  0.68697174  0.06322965  0.49644050    -0.96300
O785        O  0.68319518  0.47310525  0.49503906    -0.53500
O786        O  0.67000225  0.00963712  0.43610573    -0.72800
C787        C  0.65486941  0.50367386  0.40437872     0.99500
O788        O  0.99376744  0.43010183  0.37815598    -0.61700
O789        O  0.98278879  0.31926523  0.50385821    -0.56500
O790        O  0.53366602  0.39979554  0.39775805    -0.93100
O791        O  0.53061279  0.36004064  0.43858057    -0.91600
O792        O  0.89669500  0.33709287  0.50328349    -0.91900
O793        O  0.90028578  0.38213158  0.45141788    -0.90700
C794        C  0.52877878  0.36945736  0.40619862     1.18300
H795        H  0.97685574  0.37106764  0.55063557     0.34300
H796        H  0.98032853  0.46315913  0.45100807     0.45100
H797        H  0.60560847  0.43588298  0.44559596     0.38700
H798        H  0.61377621  0.02434997  0.55119981     0.35100
H799        H  0.87482568  0.40468468  0.51054763     0.26900
H800        H  0.59900462  0.09377528  0.49674652     0.32900
H801        H  0.71332488  0.07004471  0.48285591     0.38800
H802        H  0.87092069  0.33226556  0.51630626     0.33200
H803        H  0.50220919  0.30909024  0.50430415     0.32100
H804        H  0.58727197  0.35452772  0.49304227     0.33800
H805        H  0.67831952  0.96092898  0.46989166     0.32800
H806        H  0.91139438  0.37231065  0.43447035     0.36800
H807        H  0.96987125  0.40364692  0.38392000     0.29500
H808        H  0.57052119  0.46906338  0.64450897     0.33700
H809        H  0.71936248  0.03381999  0.53590987     0.36600
H810        H  0.99645298  0.30701233  0.49600766     0.29200
H811        H  0.97929657  0.44268777  0.38038158     0.42100
H812        H  0.97086361  0.50991066  0.49177013     0.32100
H813        H  0.91423032  0.44271165  0.52697169     0.39700
H814        H  0.66991996  0.45286619  0.51325078     0.31600
H815        H  0.62900727  0.08584302  0.51719463     0.31700
H816        H  0.61182935  0.99719757  0.62109658     0.31900
C817        C  0.77158851  0.05398562  0.28163165     0.04000
C818        C  0.75054906  0.04012989  0.24834133    -0.12100
C819        C  0.77390743  0.05434758  0.21595315     0.01500
C820        C  0.81996100  0.07958980  0.21717045    -0.10700
C821        C  0.84181503  0.09162285  0.25052642     0.04000
C822        C  0.81759521  0.07954590  0.28271276    -0.10100
H823        H  0.71512342  0.01938679  0.24764712     0.09600
H824        H  0.83873010  0.09074016  0.19245573     0.07100
H825        H  0.83443360  0.09045152  0.30829183     0.07000
C826        C  0.51452733  0.08415827  0.28315174     0.04000
C827        C  0.52185884  0.07231327  0.25068883    -0.12100
C828        C  0.51203331  0.08070497  0.21720706     0.01500
C829        C  0.99380801  0.10058734  0.21687829    -0.10700
C830        C  0.98517521  0.11152918  0.24909169     0.04000
C831        C  0.99567023  0.10357858  0.28217438    -0.10100
H832        H  0.53420390  0.05565048  0.25154315     0.09600
H833        H  0.98578449  0.10712544  0.19140049     0.07100
H834        H  0.98915688  0.11247105  0.30688928     0.07000
C835        C  0.89002532  0.11733938  0.25151656     0.04000
C836        C  0.91444096  0.10303980  0.24949481    -0.12100
C837        C  0.96047174  0.12735906  0.24877097     0.01500
C838        C  0.98224348  0.16617502  0.24964427    -0.10700
C839        C  0.95780045  0.18054628  0.25173420     0.04000
C840        C  0.91172431  0.15609596  0.25304071    -0.10100
H841        H  0.89764481  0.07298769  0.24866173     0.09600
H842        H  0.51780578  0.18504431  0.24932967     0.07100
H843        H  0.89281476  0.16723058  0.25431667     0.07000
C844        C  0.50390278  0.27881003  0.28273272     0.04000
C845        C  0.48611221  0.24055936  0.28344295    -0.12100
C846        C  0.47989003  0.22134485  0.25119201     0.01500
C847        C  0.49034287  0.24011752  0.21808344    -0.10700
C848        C  0.50725597  0.27802497  0.21710692     0.04000
C849        C  0.51567326  0.29741262  0.24949364    -0.10100
H850        H  0.47571556  0.22545246  0.30875269     0.09600
H851        H  0.48301128  0.22472834  0.19316237     0.07100
H852        H  0.52962513  0.32695044  0.24861915     0.07000
C853        C  0.49787662  0.34311663  0.34509067     0.24500
C854        C  0.51980994  0.34373906  0.37610581    -0.23600
C855        C  0.53372651  0.32047933  0.37723543     0.19400
C856        C  0.52793785  0.29872506  0.34719020     0.24400
C857        C  0.50733998  0.29925855  0.31583867    -0.23600
C858        C  0.49148316  0.32104903  0.31554537     0.19300
F859        F  0.46967963  0.32112497  0.28646484    -0.13500
F860        F  0.48205455  0.36368503  0.34327862    -0.15900
F861        F  0.54442753  0.27863838  0.34808902    -0.15900
F862        F  0.55460905  0.31997967  0.40675060    -0.13500
C863        C  0.68046289  0.03347563  0.34358066     0.24500
C864        C  0.68648435  0.01787684  0.37373367    -0.23600
C865        C  0.72226578  0.01574692  0.37425780     0.19400
C866        C  0.75105828  0.02854898  0.34480814     0.24400
C867        C  0.74425107  0.04339477  0.31439853    -0.23600
C868        C  0.70908256  0.04625698  0.31437626     0.19300
F869        F  0.70239211  0.06157417  0.28592392    -0.13500
F870        F  0.64692782  0.03665007  0.34243399    -0.15900
F871        F  0.78433709  0.02495243  0.34533017    -0.15900
F872        F  0.72805147  0.99958107  0.40244886    -0.13500
C873        C  0.49940257  0.04441139  0.37728018     0.24500
C874        C  0.53861766  0.04794721  0.38167219    -0.23600
C875        C  0.57119937  0.06611657  0.35501932     0.19400
C876        C  0.56420564  0.07945826  0.32374963     0.24400
C877        C  0.52402334  0.07422965  0.31827618    -0.23600
C878        C  0.99146359  0.05716636  0.34635555     0.19300
F879        F  0.95204098  0.05126229  0.34238732    -0.13500
F880        F  0.96698669  0.02563546  0.40282848    -0.15900
F881        F  0.59652012  0.09706357  0.29856480    -0.15900
F882        F  0.60944715  0.07006544  0.35895760    -0.13500
C883        C  0.48912431  0.31337832  0.17929043     0.24500
C884        C  0.51104788  0.29674019  0.18281796    -0.23600
C885        C  0.53720173  0.29946370  0.15422414     0.19400
C886        C  0.54368567  0.32078977  0.12356975     0.24400
C887        C  0.52383435  0.33936417  0.12125000    -0.23600
C888        C  0.49528979  0.33426887  0.14884627     0.19300
F889        F  0.47312920  0.34955515  0.14634238    -0.13500
F890        F  0.46172636  0.30954015  0.20557714    -0.15900
F891        F  0.57097411  0.32479488  0.09714524    -0.15900
F892        F  0.55795925  0.28294492  0.15670274    -0.13500
C893        C  0.56032971  0.07283914  0.17824727     0.24500
C894        C  0.52031403  0.06806432  0.18318047    -0.23600
C895        C  0.98673997  0.04855140  0.15726270     0.19400
C896        C  0.99359561  0.03455840  0.12629178     0.24400
C897        C  0.53400792  0.03886805  0.12150275    -0.23600
C898        C  0.56685606  0.05804779  0.14791249     0.19300
F899        F  0.60551514  0.06267685  0.14416644    -0.13500
F900        F  0.59328516  0.09198421  0.20279970    -0.15900
F901        F  0.96064243  0.01518647  0.10180770    -0.15900
F902        F  0.94697408  0.04176665  0.16223652    -0.13500
C903        C  0.73161119  0.02062277  0.12037767     0.24500
C904        C  0.69310514  0.01884169  0.12094745    -0.23600
C905        C  0.68432334  0.03226052  0.15125190     0.19400
C906        C  0.71199923  0.04551381  0.18102449     0.24400
C907        C  0.74878916  0.04483143  0.18182393    -0.23600
C908        C  0.75911041  0.03320738  0.15080931     0.19300
F909        F  0.79426411  0.03209597  0.15060513    -0.13500
F910        F  0.74133207  0.00835662  0.09121556    -0.15900
F911        F  0.70227421  0.05862948  0.20945913    -0.15900
F912        F  0.64891120  0.53398746  0.15204027    -0.13500
C913        C  0.90541744  0.35738563  0.65267490     0.24500
C914        C  0.90150947  0.37666153  0.62474788    -0.23600
C915        C  0.86810302  0.38166668  0.62650319     0.19400
C916        C  0.83997015  0.36870001  0.65630167     0.24400
C917        C  0.84478778  0.35044569  0.68472196    -0.23600
C918        C  0.87703408  0.34410207  0.68222259     0.19300
F919        F  0.88120557  0.32522877  0.70866521    -0.13500
F920        F  0.93673330  0.35140094  0.65136151    -0.15900
F921        F  0.80965040  0.37578547  0.65828842    -0.15900
F922        F  0.86448125  0.40116293  0.60042108    -0.13500
C923        C  0.90789444  0.40943535  0.85112863     0.24500
C924        C  0.89798317  0.38458536  0.87949879    -0.23600
C925        C  0.85901613  0.34785228  0.87804811     0.19400
C926        C  0.83241857  0.33524328  0.84724687     0.24400
C927        C  0.84333243  0.35974022  0.81815973    -0.23600
C928        C  0.88047641  0.39731681  0.82104603     0.19300
F929        F  0.89071930  0.42222750  0.79435494    -0.13500
F930        F  0.94435620  0.44554820  0.85248376    -0.15900
F931        F  0.79777047  0.29850122  0.84493317    -0.15900
F932        F  0.84815095  0.32347667  0.90542306    -0.13500
C933        C  0.59548908  0.36778250  0.67804164     0.24500
C934        C  0.57163824  0.32877272  0.68115310    -0.23600
C935        C  0.54575478  0.30598313  0.65186060     0.19400
C936        C  0.54151204  0.32202999  0.62096179     0.24400
C937        C  0.56330302  0.36103157  0.61907537    -0.23600
C938        C  0.59169230  0.38371088  0.64732110     0.19300
F939        F  0.61612350  0.42162752  0.64512228    -0.13500
F940        F  0.62280363  0.39064794  0.70489273    -0.15900
F941        F  0.51482752  0.29943136  0.59371585    -0.15900
F942        F  0.52336246  0.26823009  0.65374416    -0.13500
C943        C  0.59265066  0.36601396  0.81912376     0.24500
C944        C  0.56900895  0.32709355  0.81524153    -0.23600
C945        C  0.54197100  0.30358703  0.84374845     0.19400
C946        C  0.53740093  0.31891185  0.87502235     0.24400
C947        C  0.56002957  0.35789706  0.87815930    -0.23600
C948        C  0.58841103  0.38122180  0.85017410     0.19300
F949        F  0.61218730  0.41906447  0.85277886    -0.13500
F950        F  0.62002408  0.38950448  0.79263011    -0.15900
F951        F  0.01008282  0.29550834  0.90117448    -0.15900
F952        F  0.51851604  0.26583095  0.84061326    -0.13500
C953        C  0.60329500  0.11499473  0.65393464     0.24500
C954        C  0.57478746  0.09928108  0.68384847    -0.23600
C955        C  0.53723135  0.06175854  0.68181036     0.19400
C956        C  0.53020045  0.03962897  0.65195666     0.24400
C957        C  0.55999233  0.05470148  0.62306123    -0.23600
C958        C  0.59608172  0.09279118  0.62393303     0.19300
F959        F  0.62609330  0.10785249  0.59687148    -0.12100
F960        F  0.63960471  0.15118194  0.65449305    -0.15900
F961        F  0.99200596  0.00248528  0.65116678    -0.15900
F962        F  0.00605115  0.04496164  0.70968461    -0.13500
C963        C  0.60525942  0.06206108  0.85007868     0.24500
C964        C  0.58154321  0.06105257  0.87996146    -0.23600
C965        C  0.56568469  0.08285539  0.87896202     0.19400
C966        C  0.57093708  0.10315863  0.84789543     0.24400
C967        C  0.59300437  0.10275881  0.81759123    -0.23600
C968        C  0.61079211  0.08254196  0.81930150     0.19300
F969        F  0.63339754  0.08236505  0.79098271    -0.13500
F970        F  0.62310593  0.04302889  0.85047085    -0.15900
F971        F  0.55218671  0.12143738  0.84666730    -0.15900
F972        F  0.54403385  0.58397633  0.90758443    -0.13500
C973        C  0.58507157  0.61919845  0.71881592     0.04000
C974        C  0.59988091  0.65671843  0.71946161    -0.12100
C975        C  0.61399144  0.67699197  0.75185862     0.01500
C976        C  0.61242248  0.65960035  0.78395366    -0.10700
C977        C  0.59660229  0.62192280  0.78398886     0.04000
C978        C  0.58350502  0.60213827  0.75131595    -0.10100
H979        H  0.60145463  0.67048481  0.69476458     0.09600
H980        H  0.62424139  0.67561605  0.80874696     0.07100
H981        H  0.57246390  0.57334174  0.75120467     0.07000
C982        C  0.57503633  0.81278200  0.71503721     0.04000
C983        C  0.56457211  0.82170133  0.74781387    -0.12100
C984        C  0.57376872  0.81238242  0.78099591     0.01500
C985        C  0.59291943  0.79331469  0.78120909    -0.10700
C986        C  0.60351620  0.78425969  0.74870360     0.04000
C987        C  0.59421638  0.79371770  0.71570552    -0.10100
H988        H  0.55105260  0.83748550  0.74751657     0.09600
H989        H  0.60195114  0.78748598  0.80659214     0.07100
H990        H  0.60430719  0.78825522  0.69073505     0.07000
C991        C  0.70120183  0.78126002  0.75103360     0.04000
C992        C  0.67579523  0.79471720  0.74962102    -0.12100
C993        C  0.62968181  0.76957567  0.74940399     0.01500
C994        C  0.60908090  0.73084062  0.75028596    -0.10700
C995        C  0.63461040  0.71739162  0.75162735     0.04000
C996        C  0.68056958  0.74268292  0.75232144    -0.10100
H997        H  0.69183704  0.82464767  0.74874116     0.09600
H998        H  0.57349228  0.71133398  0.75003131     0.07100
H999        H  0.70030975  0.73231184  0.75341826     0.07000
C1000       C  0.81866258  0.83923434  0.71845969     0.04000
C1001       C  0.84126635  0.85288567  0.75127963    -0.12100
C1002       C  0.81847666  0.84424940  0.78396371     0.01500
C1003       C  0.77232416  0.82145221  0.78355506    -0.10700
C1004       C  0.74941456  0.80725123  0.75093944     0.04000
C1005       C  0.77253955  0.81622361  0.71843569    -0.10100
H1006       H  0.87691212  0.87015531  0.75132301     0.09600
H1007       H  0.75415141  0.81452981  0.80849741     0.07100
H1008       H  0.75466103  0.80481250  0.69332918     0.07000
Zr1009     Zr  0.54890043  0.94879616  0.07027793     2.17500
O1010       O  0.00644338  0.93320629  0.12576957    -0.50400
O1011       O  0.62000368  0.98248033  0.09987670    -0.73600
O1012       O  0.53606479  0.89409477  0.09923517    -0.80400
O1013       O  0.53621453  0.52767551  0.05894780    -0.82200
O1014       O  0.53445876  0.85534319  0.05812598    -0.77800
O1015       O  0.54422506  0.99445898  0.10110903    -0.89400
O1016       O  0.67482678  0.51004102  0.05883746    -0.75400
O1017       O  0.59160467  0.93626934  0.03545997    -0.84900
O1018       O  0.59655044  0.00379824  0.03556436    -0.84600
O1019       O  0.49607848  0.89382954  0.03589209    -0.71300
O1020       O  0.50109251  0.95635945  0.03575238    -0.83500
Zr1021     Zr  0.54144395  0.94572794  0.92960453     2.26400
Zr1022     Zr  0.53966531  0.88249515  0.99941472     2.06300
Zr1023     Zr  0.54849598  0.51074721  0.00008444     2.10000
Zr1024     Zr  0.63902849  0.99124638  0.00035751     1.78800
O1025       O  0.99215615  0.52083885  0.99292018    -0.92300
O1026       O  0.68594940  0.97036213  0.99976842    -0.40100
O1027       O  0.59341550  0.00031372  0.96425633    -0.76700
O1028       O  0.58907164  0.93760255  0.96411243    -0.95400
O1029       O  0.49285083  0.89024217  0.96343834    -0.88700
O1030       O  0.49795736  0.95766751  0.96413512    -0.91500
C1031       C  0.66082783  0.00198642  0.09115202     1.02200
C1032       C  0.53843584  0.51937928  0.09166241     1.15100
C1033       C  0.53210599  0.86423445  0.09049530     1.05900
O1034       O  0.58984751  0.86525840  0.00346430    -0.93700
O1035       O  0.54699089  0.86209625  0.94033852    -0.89400
O1036       O  0.54952639  0.90173615  0.89982650    -0.82600
C1037       C  0.55088235  0.87437640  0.90808901     1.12600
O1038       O  0.90163762  0.87504276  0.05082369    -0.95700
Zr1039     Zr  0.95095350  0.90202211  0.99914380     1.88900
O1040       O  0.97089568  0.91534067  0.90040798    -0.72300
O1041       O  0.97497938  0.81857617  0.99534528    -0.51600
O1042       O  0.90265650  0.83384279  0.99529853    -0.96300
O1043       O  0.90511614  0.92390431  0.00176706    -0.53500
O1044       O  0.91533332  0.88724816  0.94114755    -0.72800
C1045       C  0.93005594  0.89601050  0.90893508     0.99500
O1046       O  0.56850105  0.95246596  0.86833584    -0.61700
O1047       O  0.60910862  0.57655003  0.00875032    -0.56500
O1048       O  0.56661621  0.00477177  0.90188653    -0.93100
O1049       O  0.56193151  0.54107256  0.94167464    -0.91600
O1050       O  0.68913892  0.56000232  0.99513469    -0.91900
O1051       O  0.68655725  0.51206694  0.94775382    -0.90700
C1052       C  0.56893083  0.53384826  0.91007244     1.18300
H1053       H  0.61465866  0.52582823  0.05088982     0.34300
H1054       H  0.60694464  0.93408289  0.94865900     0.45100
H1055       H  0.98136741  0.96225662  0.94860992     0.38700
H1056       H  0.97798062  0.87311412  0.05139960     0.35100
H1057       H  0.71597746  0.99325514  0.00453049     0.26900
H1058       H  0.48588753  0.80332300  0.98909138     0.32900
H1059       H  0.87501078  0.82748522  0.98448521     0.38800
H1060       H  0.71784010  0.56684189  0.00384976     0.33200
H1061       H  0.62928660  0.58287861  0.98835075     0.32100
H1062       H  0.00866851  0.54828650  0.99017993     0.33800
H1063       H  0.91076710  0.93760896  0.97892629     0.32800
H1064       H  0.66605790  0.50050532  0.92706305     0.36800
H1065       H  0.54893347  0.45651140  0.85330889     0.29500
H1066       H  0.02278836  0.93029289  0.14460956     0.33700
H1067       H  0.87159890  0.86187269  0.04074369     0.36600
H1068       H  0.59632244  0.59016358  0.00361934     0.29200
H1069       H  0.59897487  0.97576048  0.86818961     0.42100
H1070       H  0.61649380  0.88698648  0.01520596     0.32100
H1071       H  0.67807945  0.95518025  0.02191001     0.39700
H1072       H  0.91901776  0.94368321  0.02045940     0.31600
H1073       H  0.96498475  0.81041528  0.02044292     0.31700
H1074       H  0.97914035  0.90771867  0.12170264     0.31900
Zr1075     Zr  0.54319054  0.94860776  0.57067441     2.17500
O1076       O  0.58902995  0.96999015  0.62458391    -0.50400
O1077       O  0.97330001  0.91028710  0.60219416    -0.73600
O1078       O  0.54682636  0.99867360  0.60190728    -0.80400
O1079       O  0.55059808  0.86671127  0.55699838    -0.82200
O1080       O  0.55664811  0.54115373  0.56088949    -0.77800
O1081       O  0.55378150  0.90556555  0.59899998    -0.89400
O1082       O  0.91817905  0.89208594  0.56256193    -0.75400
O1083       O  0.49861363  0.96047788  0.53795448    -0.84900
O1084       O  0.49480383  0.89319814  0.53630902    -0.84600
O1085       O  0.59430569  0.00336500  0.53546826    -0.71300
O1086       O  0.58997752  0.94150676  0.53368617    -0.83500
Zr1087     Zr  0.54492937  0.95197674  0.42903795     2.26400
Zr1088     Zr  0.54768047  0.51406628  0.50152746     2.06300
Zr1089     Zr  0.54104090  0.88650702  0.49844016     2.10000
Zr1090     Zr  0.95020331  0.90487898  0.50274673     1.78800
O1091       O  0.60033262  0.88000326  0.49141605    -0.92300
O1092       O  0.90269445  0.92505857  0.49998807    -0.40100
O1093       O  0.49527677  0.89730645  0.46486643    -0.76700
O1094       O  0.49842611  0.95929394  0.46613477    -0.95400
O1095       O  0.59425619  0.00712425  0.46315142    -0.88700
O1096       O  0.58963782  0.94008628  0.46165909    -0.91500
C1097       C  0.93267182  0.89435243  0.59443675     1.02200
C1098       C  0.55539886  0.87860958  0.58952420     1.15100
C1099       C  0.55289417  0.52952714  0.59333658     1.05900
O1100       O  0.99462188  0.52675127  0.50908591    -0.93700
O1101       O  0.53967343  0.53499194  0.44326858    -0.89400
O1102       O  0.54720571  0.00242517  0.40079144    -0.82600
C1103       C  0.54295367  0.52791548  0.41038671     1.12600
O1104       O  0.69122825  0.51962017  0.54550058    -0.95700
Zr1105     Zr  0.63836992  0.99497468  0.49625161     1.88900
O1106       O  0.61378232  0.98475344  0.39592974    -0.72300
O1107       O  0.61061027  0.57953776  0.49551568    -0.51600
O1108       O  0.68570039  0.56383372  0.49655592    -0.96300
O1109       O  0.68643335  0.97534337  0.49257479    -0.53500
O1110       O  0.66998932  0.51018566  0.43662683    -0.72800
C1111       C  0.65478773  0.00317556  0.40389139     0.99500
O1112       O  0.99504487  0.93033653  0.37726210    -0.61700
O1113       O  0.98461830  0.81964937  0.50048680    -0.56500
O1114       O  0.53385021  0.89873929  0.39811716    -0.93100
O1115       O  0.52920065  0.85829867  0.43899328    -0.91600
O1116       O  0.90010294  0.83683386  0.50757926    -0.91900
O1117       O  0.89845459  0.87454095  0.45285815    -0.90700
C1118       C  0.52805542  0.86797749  0.40658062     1.18300
H1119       H  0.97727649  0.87147159  0.55100520     0.34300
H1120       H  0.97980101  0.96278100  0.45078218     0.45100
H1121       H  0.60561118  0.93505519  0.44550336     0.38700
H1122       H  0.61282334  0.52463856  0.55138692     0.35100
H1123       H  0.87294976  0.90231818  0.50581587     0.26900
H1124       H  0.59799511  0.59367133  0.49744582     0.32900
H1125       H  0.71182922  0.57097069  0.48241134     0.38800
H1126       H  0.87458956  0.83154798  0.52142249     0.33200
H1127       H  0.49961386  0.80809118  0.50496422     0.32100
H1128       H  0.58565025  0.85267804  0.49251367     0.33800
H1129       H  0.67660195  0.45999136  0.47170046     0.32800
H1130       H  0.91220671  0.89302381  0.43300684     0.36800
H1131       H  0.96972130  0.90472783  0.38414861     0.29500
H1132       H  0.57033865  0.96805624  0.64447924     0.33700
H1133       H  0.72048450  0.53568513  0.53387068     0.36600
H1134       H  0.96898385  0.81542618  0.52343495     0.29200
H1135       H  0.98263557  0.94468705  0.37733510     0.42100
H1136       H  0.97322082  0.01432104  0.48922400     0.32100
H1137       H  0.91110031  0.94149226  0.52124020     0.39700
H1138       H  0.67584795  0.95630258  0.51176620     0.31600
H1139       H  0.62773591  0.58550473  0.51798545     0.31700
H1140       H  0.61222812  0.49690486  0.62076059     0.31900
C1141       C  0.77112062  0.55296841  0.28155494     0.04000
C1142       C  0.74965277  0.53922167  0.24834463    -0.12100
C1143       C  0.77278801  0.55316013  0.21577938     0.01500
C1144       C  0.81880439  0.57823417  0.21661145    -0.10700
C1145       C  0.84106454  0.59041623  0.24971576     0.04000
C1146       C  0.81722639  0.57832117  0.28216313    -0.10100
H1147       H  0.71415074  0.51887673  0.24783944     0.09600
H1148       H  0.83724970  0.58932973  0.19174080     0.07100
H1149       H  0.83444166  0.58931542  0.30757854     0.07000
C1150       C  0.51601026  0.58529679  0.28289546     0.04000
C1151       C  0.52388753  0.57382762  0.25044884    -0.12100
C1152       C  0.51360753  0.58181549  0.21700366     0.01500
C1153       C  0.99340594  0.60045355  0.21667811    -0.10700
C1154       C  0.98538581  0.61174025  0.24901963     0.04000
C1155       C  0.99687050  0.60428198  0.28193821    -0.10100
H1156       H  0.53670007  0.55752201  0.25126083     0.09600
H1157       H  0.98459395  0.60655013  0.19135646     0.07100
H1158       H  0.99058728  0.61319448  0.30675228     0.07000
C1159       C  0.88931252  0.61662251  0.25017225     0.04000
C1160       C  0.91420946  0.60272807  0.24876820    -0.12100
C1161       C  0.96024977  0.62733521  0.24890034     0.01500
C1162       C  0.98153004  0.66615153  0.25007498    -0.10700
C1163       C  0.95666450  0.68025702  0.25095066     0.04000
C1164       C  0.91053611  0.65538521  0.25115334    -0.10100
H1165       H  0.89775295  0.57272511  0.24789158     0.09600
H1166       H  0.51704134  0.68486905  0.24966028     0.07100
H1167       H  0.89122774  0.66616814  0.25166011     0.07000
C1168       C  0.50341986  0.77811839  0.28227906     0.04000
C1169       C  0.48577754  0.73990556  0.28293103    -0.12100
C1170       C  0.47849063  0.72050368  0.25060778     0.01500
C1171       C  0.48821654  0.73911629  0.21748151    -0.10700
C1172       C  0.50538144  0.77707066  0.21650047     0.04000
C1173       C  0.51426681  0.79656500  0.24892749    -0.10100
H1174       H  0.47610632  0.72490192  0.30828453     0.09600
H1175       H  0.48041068  0.72362652  0.19256324     0.07100
H1176       H  0.52809656  0.82607303  0.24803555     0.07000
C1177       C  0.49708093  0.84171058  0.34549860     0.24500
C1178       C  0.51890198  0.84213288  0.37646948    -0.23600
C1179       C  0.53253880  0.81863102  0.37745217     0.19400
C1180       C  0.52721930  0.79736677  0.34706802     0.24400
C1181       C  0.50711444  0.79845883  0.31561122    -0.23600
C1182       C  0.49106066  0.82008815  0.31567019     0.19300
F1183       F  0.46914230  0.82024340  0.28672506    -0.13500
F1184       F  0.48075632  0.86189695  0.34410606    -0.15900
F1185       F  0.54349161  0.77709705  0.34783932    -0.15900
F1186       F  0.55243560  0.81723298  0.40721544    -0.13500
C1187       C  0.68100903  0.53409420  0.34411275     0.24500
C1188       C  0.68672999  0.51834728  0.37429024    -0.23600
C1189       C  0.72228948  0.51592350  0.37486020     0.19400
C1190       C  0.75093352  0.52828296  0.34528265     0.24400
C1191       C  0.74417441  0.54296771  0.31464441    -0.23600
C1192       C  0.70939997  0.54636836  0.31476049     0.19300
F1193       F  0.70273432  0.56159123  0.28621503    -0.13500
F1194       F  0.64785564  0.53775795  0.34301758    -0.15900
F1195       F  0.78390158  0.52430036  0.34591796    -0.15900
F1196       F  0.72788004  0.49977488  0.40320061    -0.13500
C1197       C  0.50045918  0.54552703  0.37705250     0.24500
C1198       C  0.53937987  0.54861469  0.38145442    -0.23600
C1199       C  0.57222474  0.56691909  0.35503808     0.19400
C1200       C  0.56538708  0.58013311  0.32358830     0.24400
C1201       C  0.52539731  0.57528112  0.31804388    -0.23600
C1202       C  0.99330274  0.55825745  0.34596269     0.19300
F1203       F  0.95385213  0.55224680  0.34177331    -0.13500
F1204       F  0.96923162  0.52831768  0.40320243    -0.15900
F1205       F  0.59760974  0.59710486  0.29829053    -0.15900
F1206       F  0.61071993  0.57138840  0.35954013    -0.13500
C1207       C  0.48723481  0.81214551  0.17819769     0.24500
C1208       C  0.50940607  0.79578391  0.18211611    -0.23600
C1209       C  0.53602589  0.79872649  0.15379803     0.19400
C1210       C  0.54246882  0.81981881  0.12292457     0.24400
C1211       C  0.52238977  0.83820427  0.12026640    -0.23600
C1212       C  0.49373007  0.83314886  0.14774343     0.19300
F1213       F  0.47186373  0.84869611  0.14516084    -0.13500
F1214       F  0.45922641  0.80788540  0.20410175    -0.15900
F1215       F  0.56993899  0.82381010  0.09666637    -0.15900
F1216       F  0.55719267  0.78259168  0.15676287    -0.13500
C1217       C  0.56155002  0.57414101  0.17714987     0.24500
C1218       C  0.52128009  0.56869936  0.18304625    -0.23600
C1219       C  0.98656026  0.54909245  0.15629831     0.19400
C1220       C  0.99306029  0.53472430  0.12539007     0.24400
C1221       C  0.53365351  0.53897442  0.12112289    -0.23600
C1222       C  0.56745733  0.55916652  0.14660743     0.19300
F1223       F  0.60644739  0.56461167  0.14166203    -0.13500
F1224       F  0.59528590  0.59404172  0.20092136    -0.15900
F1225       F  0.96002735  0.51540597  0.10094038    -0.15900
F1226       F  0.94715161  0.54304345  0.16097636    -0.13500
C1227       C  0.73056507  0.52049642  0.12015636     0.24500
C1228       C  0.69265661  0.51951603  0.12086599    -0.23600
C1229       C  0.68417237  0.53308498  0.15118153     0.19400
C1230       C  0.71166722  0.54570875  0.18100665     0.24400
C1231       C  0.74772308  0.54403575  0.18175801    -0.23600
C1232       C  0.75788176  0.53247952  0.15056920     0.19300
F1233       F  0.79284502  0.53111732  0.15003318    -0.13500
F1234       F  0.73976372  0.50797027  0.09086346    -0.15900
F1235       F  0.70272623  0.55943679  0.20940886    -0.15900
F1236       F  0.64859854  0.03249960  0.15217179    -0.13500
C1237       C  0.90554915  0.85844675  0.65209032     0.24500
C1238       C  0.90066149  0.87736642  0.62440526    -0.23600
C1239       C  0.86591893  0.88076343  0.62634920     0.19400
C1240       C  0.83788446  0.86695888  0.65631162     0.24400
C1241       C  0.84400892  0.84934809  0.68458016    -0.23600
C1242       C  0.87724429  0.84426704  0.68166542     0.19300
F1243       F  0.88251331  0.82575984  0.70775499    -0.13500
F1244       F  0.93786296  0.85368054  0.65054445    -0.15900
F1245       F  0.80629729  0.87255972  0.65860352    -0.15900
F1246       F  0.86069311  0.89935244  0.60033045    -0.13500
C1247       C  0.90807923  0.90831488  0.85093337     0.24500
C1248       C  0.89832606  0.88360543  0.87933279    -0.23600
C1249       C  0.85945193  0.84682572  0.87812749     0.19400
C1250       C  0.83234443  0.83418467  0.84764895     0.24400
C1251       C  0.84348520  0.85841730  0.81822845    -0.23600
C1252       C  0.88084011  0.89594264  0.82077847     0.19300
F1253       F  0.89132455  0.92064717  0.79381443    -0.13500
F1254       F  0.94418465  0.94458262  0.85240644    -0.15900
F1255       F  0.79676045  0.79772292  0.84611298    -0.15900
F1256       F  0.84910133  0.82251761  0.90546249    -0.13500
C1257       C  0.59591703  0.86771941  0.67787439     0.24500
C1258       C  0.57226347  0.82871189  0.68086591    -0.23600
C1259       C  0.54669738  0.80599564  0.65139124     0.19400
C1260       C  0.54251129  0.82210445  0.62051110     0.24400
C1261       C  0.56400865  0.86105212  0.61881405    -0.23600
C1262       C  0.59215485  0.88369834  0.64717835     0.19300
F1263       F  0.61636521  0.92161452  0.64512758    -0.13500
F1264       F  0.62302866  0.89053294  0.70483933    -0.15900
F1265       F  0.51614579  0.79962245  0.59306800    -0.15900
F1266       F  0.52460146  0.76826886  0.65301299    -0.13500
C1267       C  0.59282984  0.86624292  0.81918976     0.24500
C1268       C  0.56917413  0.82735078  0.81499911    -0.23600
C1269       C  0.54203073  0.80361762  0.84334533     0.19400
C1270       C  0.53711232  0.81865389  0.87467164     0.24400
C1271       C  0.55913603  0.85756836  0.87782382    -0.23600
C1272       C  0.58797800  0.88114910  0.85018216     0.19300
F1273       F  0.61207885  0.91896877  0.85333451    -0.13500
F1274       F  0.62118383  0.88999397  0.79327198    -0.15900
F1275       F  0.00909928  0.79568712  0.90118824    -0.15900
F1276       F  0.51919425  0.76592107  0.84014530    -0.13500
C1277       C  0.60143667  0.61385487  0.65420658     0.24500
C1278       C  0.57342584  0.59794698  0.68441005    -0.23600
C1279       C  0.53617415  0.56023439  0.68260798     0.19400
C1280       C  0.52873002  0.53833774  0.65243705     0.24400
C1281       C  0.55794186  0.55377749  0.62316687    -0.23600
C1282       C  0.59372836  0.59190668  0.62389575     0.19300
F1283       F  0.62287920  0.60730614  0.59621498    -0.12100
F1284       F  0.63781171  0.65000143  0.65474641    -0.15900
F1285       F  0.99447203  0.50277729  0.65064484    -0.15900
F1286       F  0.00799654  0.54550369  0.70870807    -0.13500
C1287       C  0.60491921  0.56160264  0.85045387     0.24500
C1288       C  0.58099161  0.56063392  0.88014349    -0.23600
C1289       C  0.56618858  0.58323723  0.87926579     0.19400
C1290       C  0.57228202  0.60399116  0.84833230     0.24400
C1291       C  0.59379527  0.60295727  0.81795737    -0.23600
C1292       C  0.61102431  0.58232532  0.81972101     0.19300
F1293       F  0.63380115  0.58213391  0.79155469    -0.13500
F1294       F  0.62267167  0.54250335  0.85109797    -0.15900
F1295       F  0.55509340  0.62354113  0.84737629    -0.15900
F1296       F  0.54304776  0.08300137  0.90723309    -0.13500
loop_ 
_geom_bond_atom_site_label_1 
_geom_bond_atom_site_label_2 
_geom_bond_distance 
_geom_bond_site_symmetry_2 
_ccdc_geom_bond_type 
C1            C2   1.407       .  A
C1            C6   1.408       .  A
C1          C306   1.494       .  S
C2            C3   1.404       .  A
C2            H7   1.083       .  S
C3            C4   1.404       .  A
C3           C23   1.472       .  S
C4            C5   1.403       .  A
C4            H8   1.084       .  S
C5            C6   1.406       .  A
C5          C319   1.488       .  S
C6            H9   1.083       .  S
C10          C11   1.407       .  A
C10          C15   1.402       .  A
C10         C286   1.482       .  S
C11          C12   1.407       .  A
C11          H16   1.084       .  S
C12          C13   1.402       .  A
C12         C296   1.484       .  S
C13          C14   1.404       .  A
C13          H17   1.084       .  S
C14          C15   1.403       .  A
C14          C21   1.470       .  S
C15          H18   1.084       .  S
C19          C20   1.400       .  A
C19          C24   1.400       .  A
C19          C32   1.469       .  S
C20          C21   1.404       .  A
C20          H25   1.084       .  S
C21          C22   1.403       .  A
C22          C23   1.404       .  A
C22          H26   1.084       .  S
C23          C24   1.401       .  A
C24          H27   1.084       .  S
C28          C29   1.401       .  A
C28          C33   1.403       .  A
C28         C269   1.481       .  S
C29          C30   1.403       .  A
C29          H34   1.084       .  S
C30          C31   1.403       .  A
C30         C279   1.482       .  S
C31          C32   1.402       .  A
C31          H35   1.084       .  S
C32          C33   1.404       .  A
C33          H36   1.084       .  S
Zr37         O39   2.425       .  S
Zr37         O40   2.424       .  S
Zr37         O43   2.424       .  S
Zr37         O45   2.378       .  S
Zr37         O46   2.377       .  S
Zr37         O47   2.402   1_455  S
Zr37         O48   2.389       .  S
Zr37        O686   2.440       .  S
O38        Zr685   2.439       .  S
O38          H94   0.990       .  S
O38         H102   0.990       .  S
O39          C59   1.284       .  A
O40          C61   1.284       .  A
O41         Zr51   2.451       .  S
O41          C60   1.288       .  A
O42         Zr50   2.441   1_554  S
O42          C61   1.285       .  A
O43         C384   1.283       .  A
O44        Zr376   2.423   1_545  S
O44         C383   1.280       .  A
O45         Zr50   2.399   1_554  S
O45         Zr52   2.380       .  S
O46         Zr52   2.382       .  S
O46        Zr375   2.392   1_554  S
O46         H405   0.966       .  S
O47         Zr50   2.403   1_654  S
O47        Zr715   2.391   1_554  S
O47         H732   0.965       .  S
O48        Zr375   2.391   1_554  S
O48        Zr715   2.395   1_454  S
Zr49         O76   2.425       .  S
Zr49         O64   2.415       .  S
Zr49        O716   2.431   1_455  S
Zr49         O55   2.394       .  S
Zr49         O56   2.403       .  S
Zr49         O57   2.374   1_455  S
Zr49         O58   2.375   1_455  S
Zr49         O74   2.437       .  S
Zr50         O63   2.454       .  S
Zr50         O56   2.396       .  S
Zr50         O57   2.396   1_455  S
Zr50         O62   2.434   1_556  S
Zr50        O717   2.437   1_455  S
Zr51         O77   2.443   1_554  S
Zr51        O370   2.393       .  S
Zr51        O372   2.390   1_545  S
Zr51        O379   2.403   1_554  S
Zr51        O382   2.392   1_444  S
Zr51         O75   2.436       .  S
Zr51        O701   2.436   1_454  S
Zr52        O368   2.422       .  S
Zr52         O55   2.396   1_554  S
Zr52         O56   2.385   1_554  S
Zr52         O54   2.439       .  S
Zr52        O402   2.436   1_554  S
Zr52        O403   2.436   1_554  S
O53        Zr699   2.437   1_556  S
O53          H90   0.990       .  S
O54          H85   0.990       .  S
O54          H99   0.990       .  S
O55        Zr375   2.399       .  S
O56          H82   0.967       .  S
O57        Zr715   2.379       .  S
O58        Zr375   2.393   1_655  S
O58        Zr715   2.385       .  S
O58         H731   0.966       .  S
C59         C580   1.473       .  S
C59         O368   1.280       .  A
C60         C249   1.478       .  S
C60         O367   1.283   1_545  A
C61         C239   1.476       .  S
O62          H98   0.990       .  S
O63          C65   1.288       .  A
O64          C65   1.281       .  A
C65         C299   1.483       .  S
O66         Zr67   2.439   1_554  S
O66          H95   0.990       .  S
Zr67         O72   2.419       .  S
Zr67        O695   2.390   1_556  S
Zr67        O696   2.394   1_556  S
Zr67        O705   2.380       .  S
Zr67        O706   2.382       .  S
Zr67         O70   2.438       .  S
Zr67         O71   2.439   1_556  S
O68        Zr697   2.421       .  S
O68          C73   1.281       .  A
O69        Zr698   2.437       .  S
O69         H101   0.990   1_556  S
O69         H734   0.990       .  S
O70          H87   0.990       .  S
O71          H91   0.990   1_554  S
O71         H100   0.990       .  S
O72          C73   1.281       .  A
C73         C276   1.470       .  S
O74          H97   0.990       .  S
O74         H417   0.990       .  S
O75          H89   0.990   1_554  S
O75          H96   0.990   1_554  S
O76         C404   1.282       .  A
O77          C80   1.286       .  A
O78        Zr376   2.433   1_546  S
O78          H88   0.990   1_556  S
O79        Zr376   2.435   1_546  S
O79          H92   0.990       .  S
C80         C316   1.487       .  S
C80         O400   1.282       .  A
H81         O370   0.967       .  S
H83         O706   0.966       .  S
H84         O695   0.965       .  S
H86         O717   0.990       .  S
H93         O398   0.990       .  S
Zr103       O106   2.440       .  S
Zr103       O109   2.414       .  S
Zr103       O753   2.425   1_455  S
Zr103       O111   2.372   1_455  S
Zr103       O112   2.382   1_455  S
Zr103       O113   2.399       .  S
Zr103       O114   2.400       .  S
Zr103       O104   2.438       .  S
O104        H160   0.990       .  S
O104        H492   0.990       .  S
O105       Zr751   2.427       .  S
O105        C125   1.283       .  A
O106        C451   1.285       .  A
O107       Zr117   2.449       .  S
O107        C126   1.287       .  A
O108       Zr116   2.438       .  S
O108        C127   1.285       .  A
O109        C126   1.283       .  A
O110       Zr118   2.424       .  S
O110        C125   1.281       .  A
O111       Zr440   2.395   1_655  S
O111       Zr766   2.376       .  S
O112       Zr117   2.394   1_655  S
O112       Zr766   2.378       .  S
O112        H795   0.966       .  S
O113       Zr133   2.400       .  S
O113       Zr440   2.399       .  S
O113        H474   0.967       .  S
O114       Zr117   2.394       .  S
O114       Zr133   2.395       .  S
Zr115       O134   2.431       .  S
Zr115       O142   2.417       .  S
Zr115       O130   2.421       .  S
Zr115       O121   2.403   1_455  S
Zr115       O122   2.399   1_455  S
Zr115       O123   2.374       .  S
Zr115       O124   2.377       .  S
Zr115       O788   2.444   1_455  S
Zr116       O129   2.435       .  S
Zr116       O435   2.394   1_445  S
Zr116       O437   2.399       .  S
Zr116       O446   2.404   1_445  S
Zr116       O447   2.392       .  S
Zr116       O135   2.437       .  S
Zr116       O776   2.437   1_455  S
Zr117       O143   2.449       .  S
Zr117       O121   2.399   1_455  S
Zr117       O124   2.386       .  S
Zr117       O119   2.437       .  S
Zr117       O789   2.436   1_455  S
Zr118       O759   2.378       .  S
Zr118       O760   2.375       .  S
Zr118       O769   2.396       .  S
Zr118       O770   2.398       .  S
Zr118       O144   2.434       .  S
Zr118       O145   2.433       .  S
Zr118       O120   2.436       .  S
O119        H156   0.990       .  S
O120        H151   0.990       .  S
O120        H165   0.990       .  S
O121       Zr766   2.400       .  S
O122       Zr440   2.399   1_655  S
O122       Zr766   2.398       .  S
O122        H796   0.965       .  S
O123       Zr133   2.375       .  S
O123       Zr440   2.388       .  S
O124       Zr133   2.375       .  S
O124        H149   0.967       .  S
C125        C266   1.475       .  S
C126        C289   1.482       .  S
C127        C309   1.482       .  S
C127        O430   1.286   1_545  A
O128       Zr764   2.434       .  S
O128        H488   0.990       .  S
O129        C131   1.284       .  A
O130        C455   1.282       .  A
C131        C226   1.465       .  S
C131        O454   1.281       .  A
O132       Zr457   2.440   1_545  S
O132        H161   0.990       .  S
Zr133       O462   2.428       .  S
Zr133       O137   2.439       .  S
Zr133       O456   2.439       .  S
Zr133       O460   2.436       .  S
O134        C139   1.285       .  A
O135        H152   0.990       .  S
O135        H167   0.990       .  S
O136       Zr457   2.439   1_545  S
O136        H153   0.990       .  S
O137        H166   0.990       .  S
O137        H481   0.990       .  S
O138       Zr457   2.433   1_545  S
O138        C463   1.283       .  A
C139        C540   1.479       .  S
C139        O462   1.282       .  A
O140       Zr763   2.445       .  S
O140        H159   0.989       .  S
O140        H163   0.990       .  S
O141       Zr765   2.436       .  S
O141        H162   0.990       .  S
O141        H803   0.990       .  S
O142        C146   1.283       .  A
O143        C146   1.288       .  A
O144        H154   0.990       .  S
O145        H158   0.989       .  S
C146        C206   1.485       .  S
H147        O760   0.967       .  S
H148        O770   0.965       .  S
H150        O437   0.967       .  S
H155        O789   0.990       .  S
H157        O461   0.989       .  S
H164        O452   0.990       .  S
H168        O428   0.990       .  S
C169        C170   1.399       .  A
C169        C174   1.401       .  A
C169        C219   1.481       .  S
C170        C171   1.402       .  A
C170        H175   1.084       .  S
C171        C172   1.401       .  A
C171        C259   1.483       .  S
C172        C173   1.404       .  A
C172        H176   1.084       .  S
C173        C174   1.404       .  A
C173        C187   1.464       .  S
C174        H177   1.084       .  S
C178        C179   1.407       .  A
C178        C831   1.400   1_455  A
C178        C229   1.482       .  S
C179        C180   1.406       .  A
C179        H184   1.084       .  S
C180        C829   1.404   1_455  A
C180        C246   1.486       .  S
C181        C182   1.401       .  A
C181        C828   1.405       .  A
C181        H185   1.083       .  S
C182        C183   1.399       .  A
C182        C189   1.466       .  S
C183        C826   1.401       .  A
C183        H186   1.084       .  S
C187        C188   1.397       .  A
C187        C192   1.400       .  A
C188        C189   1.399       .  A
C188        H193   1.085       .  S
C189        C190   1.403       .  A
C190        C191   1.404       .  A
C190        H842   1.084       .  S
C191        C192   1.402       .  A
C191        C846   1.471       .  S
C192        H195   1.084       .  S
H194        C838   1.084   1_455  S
C196        C197   1.404   1_455  A
C196        C201   1.402       .  A
C196        C209   1.486       .  S
C197        C198   1.404       .  A
C197        H202   1.084       .  S
C198        C199   1.403       .  A
C198        C839   1.465       .  S
C199        C200   1.399   1_655  A
C199        H203   1.084       .  S
C200        C201   1.401       .  A
C200        C236   1.478       .  S
C201        H204   1.084       .  S
C205        C206   1.410   1_655  A
C205        C210   1.393       .  A
C205        F212   1.357       .  S
C206        C207   1.409       .  A
C207        C208   1.404       .  A
C207        F214   1.357       .  S
C208        C209   1.408       .  A
C208        F213   1.357       .  S
C209        C210   1.407   1_455  A
C210        F211   1.359       .  S
C215        C216   1.404       .  A
C215        C220   1.392       .  A
C215        F222   1.356       .  S
C216        C217   1.410       .  A
C216        C463   1.480       .  S
C217        C218   1.404       .  A
C217        F224   1.357       .  S
C218        C219   1.405       .  A
C218        F223   1.358       .  S
C219        C220   1.407       .  A
C220        F221   1.358       .  S
C225        C226   1.402   1_655  A
C225        C878   1.400       .  A
C225        F880   1.358       .  S
C226        C227   1.401       .  A
C227        C228   1.394       .  A
C227        F234   1.356       .  S
C228        C229   1.406       .  A
C228        F233   1.358       .  S
C229        C878   1.411   1_455  A
C230        C873   1.401       .  A
C230        C877   1.411       .  A
C230        F231   1.358       .  S
F232        C873   1.358       .  S
C235        C236   1.404   1_655  A
C235        C240   1.390       .  A
C235        F242   1.359       .  S
C236        C237   1.406       .  A
C237        C238   1.405       .  A
C237        F244   1.357       .  S
C238        C239   1.408       .  A
C238        F243   1.357       .  S
C239        C240   1.405   1_455  A
C240        F241   1.358       .  S
C245        C246   1.407       .  A
C245        C250   1.398       .  A
C245        F252   1.358       .  S
C246        C895   1.409   1_455  A
C247        C248   1.403       .  A
C247        C894   1.411       .  A
C247        F254   1.358       .  S
C248        C897   1.404       .  A
C248        F253   1.358       .  S
C249        C250   1.404       .  A
C249        C896   1.405   1_455  A
C250        F251   1.356       .  S
C255        C256   1.409       .  A
C255        C260   1.405       .  A
C255        F262   1.358       .  S
C256        C257   1.402       .  A
C256        C383   1.475       .  S
C257        C258   1.387       .  A
C257        F588   1.356       .  S
C258        C259   1.407       .  A
C258        F263   1.358       .  S
C259        C260   1.409       .  A
C260        F261   1.358       .  S
F264        C581   1.356       .  S
C265        C266   1.405       .  A
C265        C270   1.396       .  A
C265        F272   1.358       .  S
C266        C267   1.407       .  A
C267        C268   1.401       .  A
C267        F274   1.358       .  S
C268        C269   1.406       .  A
C268        F273   1.358       .  S
C269        C270   1.407       .  A
C270        F271   1.358       .  S
C275        C276   1.405       .  A
C275        C280   1.394       .  A
C275        F282   1.359       .  S
C276        C277   1.404       .  A
C277        C278   1.399       .  A
C277        F284   1.358       .  S
C278        C279   1.409       .  A
C278        F283   1.358       .  S
C279        C280   1.408       .  A
C280        F281   1.358       .  S
C285        C286   1.403       .  A
C285        C290   1.393       .  A
C285        F292   1.358       .  S
C286        C287   1.408       .  A
C287        C288   1.407       .  A
C287        F294   1.358       .  S
C288        C289   1.409       .  A
C288        F293   1.358       .  S
C289        C290   1.407       .  A
C290        F291   1.358       .  S
C295        C296   1.403       .  A
C295        C300   1.394       .  A
C295        F302   1.358       .  S
C296        C297   1.409       .  A
C297        C298   1.408       .  A
C297        F304   1.357       .  S
C298        C299   1.407       .  A
C298        F951   1.358       .  S
C299        C300   1.409       .  A
C300        F301   1.358       .  S
F303        C946   1.358       .  S
C305        C306   1.411       .  A
C305        C310   1.404       .  A
C305        F312   1.358       .  S
C306        C307   1.410       .  A
C307        C308   1.400       .  A
C307        F962   1.358       .  S
C308        C309   1.405       .  A
C308        F961   1.358   1_455  S
C309        C310   1.407       .  A
C310        F311   1.358       .  S
F313        C956   1.358       .  S
F314        C955   1.358       .  S
C315        C316   1.411       .  A
C315        C320   1.398       .  A
C315        F322   1.358       .  S
C316        C317   1.408       .  A
C317        C318   1.403       .  A
C317        F648   1.357       .  S
C318        C319   1.408       .  A
C318        F323   1.357       .  S
C319        C320   1.406       .  A
C320        F321   1.358       .  S
F324        C641   1.357       .  S
C325        C326   1.407       .  A
C325        C330   1.406       .  A
C325        C630   1.492       .  S
C326        C327   1.405       .  A
C326        H331   1.083       .  S
C327        C328   1.404       .  A
C327        C347   1.473       .  S
C328        C329   1.404       .  A
C328        H332   1.084       .  S
C329        C330   1.404       .  A
C329        C643   1.488       .  S
C330        H333   1.083       .  S
C334        C335   1.407       .  A
C334        C339   1.402       .  A
C334        C610   1.485       .  S
C335        C336   1.407       .  A
C335        H340   1.084       .  S
C336        C337   1.403       .  A
C336        C620   1.485       .  S
C337        C338   1.405       .  A
C337        H341   1.084       .  S
C338        C339   1.404       .  A
C338        C345   1.472       .  S
C339        H342   1.084       .  S
C343        C344   1.400       .  A
C343        C348   1.399       .  A
C343        C356   1.468       .  S
C344        C345   1.404       .  A
C344        H349   1.084       .  S
C345        C346   1.405       .  A
C346        C347   1.405       .  A
C346        H350   1.084       .  S
C347        C348   1.401       .  A
C348        H351   1.084       .  S
C352        C353   1.401       .  A
C352        C357   1.403       .  A
C352        C593   1.482       .  S
C353        C354   1.404       .  A
C353        H358   1.084       .  S
C354        C355   1.403       .  A
C354        C603   1.481       .  S
C355        C356   1.401       .  A
C355        H359   1.084       .  S
C356        C357   1.404       .  A
C357        H360   1.084       .  S
Zr361       O363   2.426       .  S
Zr361       O364   2.419       .  S
Zr361       O367   2.426       .  S
Zr361       O369   2.378       .  S
Zr361       O370   2.375   1_565  S
Zr361       O371   2.402   1_455  S
Zr361       O372   2.392       .  S
Zr361      O1010   2.440       .  S
O362      Zr1009   2.438       .  S
O362        H418   0.990       .  S
O362        H426   0.990       .  S
O363        C383   1.284   1_565  A
O364        C385   1.283       .  A
O365       Zr375   2.445   1_554  S
O365        C384   1.286       .  A
O366       Zr374   2.436   1_554  S
O366        C385   1.285       .  A
O369       Zr374   2.402   1_554  S
O369       Zr376   2.379       .  S
O370       Zr376   2.381   1_545  S
O371       Zr374   2.403   1_654  S
O371      Zr1039   2.391   1_554  S
O371       H1056   0.965       .  S
O372      Zr1039   2.397   1_454  S
Zr373      O1040   2.428   1_455  S
Zr373       O400   2.421   1_565  S
Zr373       O388   2.409       .  S
Zr373       O379   2.396   1_565  S
Zr373       O380   2.403       .  S
Zr373       O381   2.371   1_455  S
Zr373       O382   2.374   1_455  S
Zr373       O398   2.438       .  S
Zr374       O387   2.453       .  S
Zr374       O380   2.397       .  S
Zr374       O381   2.393   1_455  S
Zr374      O1041   2.439   1_455  S
Zr374       O386   2.435   1_556  S
Zr375       O401   2.445       .  S
Zr375      O1025   2.436   1_455  S
Zr375       O399   2.437   1_556  S
Zr376       O379   2.397   1_564  S
Zr376       O380   2.388   1_554  S
Zr376       O378   2.439       .  S
O377      Zr1023   2.437   1_556  S
O377        H414   0.990       .  S
O378        H409   0.990       .  S
O378        H423   0.990       .  S
O380        H406   0.967       .  S
O381      Zr1039   2.379       .  S
O382      Zr1039   2.380       .  S
O382       H1055   0.966       .  S
C384        C573   1.475       .  S
C385        C563   1.473       .  S
O386        H422   0.990       .  S
O387        C389   1.288       .  A
O388        C389   1.280       .  A
C389        C623   1.479       .  S
O390       Zr391   2.441   1_554  S
O390        H419   0.991       .  S
Zr391       O396   2.416       .  S
Zr391      O1019   2.393   1_556  S
Zr391      O1020   2.397   1_556  S
Zr391      O1029   2.380       .  S
Zr391      O1030   2.384       .  S
Zr391       O394   2.437       .  S
Zr391       O395   2.439   1_556  S
O392      Zr1021   2.422       .  S
O392        C397   1.282       .  A
O393      Zr1022   2.437       .  S
O393       H1058   0.990       .  S
O393        H425   0.990   1_556  S
O394        H411   0.990       .  S
O395        H415   0.990   1_554  S
O395        H424   0.990       .  S
O396        C397   1.280       .  A
C397        C600   1.470       .  S
O398        H421   0.990       .  S
O399        H413   0.990   1_554  S
O399        H420   0.990   1_554  S
O401        C404   1.286       .  A
O402        H412   0.990   1_556  S
O403        H416   0.990       .  S
C404        C640   1.489       .  S
H407       O1030   0.967       .  S
H408       O1019   0.965       .  S
H410       O1041   0.990       .  S
Zr427      O1077   2.431   1_455  S
Zr427       O430   2.443       .  S
Zr427       O433   2.415       .  S
Zr427       O435   2.372   1_455  S
Zr427       O436   2.383   1_455  S
Zr427       O437   2.400   1_565  S
Zr427       O438   2.402       .  S
Zr427       O428   2.439       .  S
O428        H484   0.990       .  S
O429      Zr1075   2.432       .  S
O429        C449   1.284       .  A
O431       Zr441   2.455       .  S
O431        C450   1.289       .  A
O432       Zr440   2.428       .  S
O432        C451   1.283       .  A
O433        C450   1.283       .  A
O434       Zr442   2.428       .  S
O434        C449   1.282       .  A
O435      Zr1090   2.377       .  S
O436       Zr441   2.397   1_655  S
O436      Zr1090   2.376       .  S
O436       H1119   0.968       .  S
O437       Zr457   2.406   1_545  S
O438       Zr441   2.394       .  S
O438       Zr457   2.396       .  S
Zr439       O458   2.433       .  S
Zr439       O466   2.420       .  S
Zr439       O454   2.418   1_565  S
Zr439       O445   2.401   1_455  S
Zr439       O446   2.404   1_455  S
Zr439       O447   2.375   1_565  S
Zr439       O448   2.375       .  S
Zr439      O1112   2.445   1_455  S
Zr440       O453   2.438       .  S
Zr440       O459   2.437       .  S
Zr440      O1100   2.435   1_455  S
Zr441       O467   2.449       .  S
Zr441       O445   2.397   1_455  S
Zr441       O448   2.387       .  S
Zr441       O443   2.434       .  S
Zr441      O1113   2.436   1_455  S
Zr442      O1083   2.377       .  S
Zr442      O1084   2.379       .  S
Zr442      O1093   2.398       .  S
Zr442      O1094   2.398       .  S
Zr442       O468   2.436       .  S
Zr442       O469   2.435       .  S
Zr442       O444   2.435       .  S
O443        H480   0.990       .  S
O444        H475   0.990       .  S
O444        H489   0.990       .  S
O445      Zr1090   2.397       .  S
O446      Zr1090   2.402       .  S
O446       H1120   0.965       .  S
O447       Zr457   2.377   1_545  S
O448       Zr457   2.375       .  S
O448        H473   0.967       .  S
C449        C590   1.477       .  S
C450        C613   1.484       .  S
C451        C633   1.477       .  S
O452      Zr1088   2.435       .  S
O453        C455   1.285       .  A
C455        C550   1.469       .  S
O456        H485   0.990       .  S
Zr457       O461   2.439       .  S
O458        C463   1.285   1_565  A
O459        H476   0.990       .  S
O459        H491   0.990       .  S
O460        H477   0.990       .  S
O461        H490   0.990       .  S
O464      Zr1087   2.445       .  S
O464        H483   0.990       .  S
O464        H487   0.990       .  S
O465      Zr1089   2.436       .  S
O465       H1127   0.990       .  S
O465        H486   0.990       .  S
O466        C470   1.284       .  A
O467        C470   1.288       .  A
O468        H478   0.990       .  S
O469        H482   0.990       .  S
C470        C530   1.487       .  S
H471       O1084   0.967       .  S
H472       O1094   0.965       .  S
H479       O1113   0.990   1_455  S
C493        C494   1.400       .  A
C493        C498   1.403       .  A
C493        C543   1.484       .  S
C494        C495   1.403       .  A
C494        H499   1.084       .  S
C495        C496   1.400       .  A
C495        C583   1.482       .  S
C496        C497   1.402       .  A
C496        H500   1.084       .  S
C497        C498   1.406       .  A
C497        C511   1.466       .  S
C498        H501   1.084       .  S
C502        C503   1.407       .  A
C502       C1155   1.403   1_455  A
C502        C553   1.488       .  S
C503        C504   1.408       .  A
C503        H508   1.083       .  S
C504       C1153   1.406   1_455  A
C504        C570   1.491       .  S
C505       C1152   1.405       .  A
C505        C506   1.401       .  A
C505        H509   1.084       .  S
C506        C507   1.399       .  A
C506        C513   1.468       .  S
C507       C1150   1.403       .  A
C507        H510   1.084       .  S
C511        C512   1.398       .  A
C511        C516   1.401       .  A
C512        C513   1.400       .  A
C512        H517   1.085       .  S
C513        C514   1.402       .  A
C514        C515   1.403       .  A
C514       H1166   1.084       .  S
C515        C516   1.403       .  A
C515       C1170   1.470       .  S
C516        H519   1.084       .  S
H518       C1162   1.084   1_455  S
C520        C521   1.406   1_455  A
C520        C525   1.403       .  A
C520        C533   1.488       .  S
C521        C522   1.407       .  A
C521        H526   1.083       .  S
C522        C523   1.405       .  A
C522       C1163   1.473       .  S
C523        C524   1.401   1_655  A
C523        H527   1.084       .  S
C524        C525   1.401       .  A
C524        C560   1.479       .  S
C525        H528   1.084       .  S
C529        C530   1.409   1_655  A
C529        C534   1.393       .  A
C529        F536   1.357       .  S
C530        C531   1.410       .  A
C531        C532   1.406       .  A
C531        F538   1.357       .  S
C532        C533   1.408       .  A
C532        F537   1.357       .  S
C533        C534   1.407   1_455  A
C534        F535   1.358       .  S
C539        C540   1.403       .  A
C539        C544   1.393       .  A
C539        F546   1.355       .  S
C540        C541   1.410       .  A
C541        C542   1.404       .  A
C541        F548   1.358       .  S
C542        C543   1.406       .  A
C542        F547   1.358       .  S
C543        C544   1.407       .  A
C544        F545   1.358       .  S
C549        C550   1.402       .  A
C549       C1202   1.401   1_455  A
C549       F1204   1.358   1_455  S
C550        C551   1.402       .  A
C551        C552   1.397       .  A
C551        F558   1.355       .  S
C552        C553   1.408       .  A
C552        F557   1.358       .  S
C553       C1202   1.412   1_455  A
C554       C1197   1.400       .  A
C554       C1201   1.411       .  A
C554        F555   1.358       .  S
F556       C1197   1.358       .  S
C559        C560   1.404   1_655  A
C559        C564   1.389       .  A
C559        F566   1.358       .  S
C560        C561   1.408       .  A
C561        C562   1.405       .  A
C561        F568   1.357       .  S
C562        C563   1.406       .  A
C562        F567   1.358       .  S
C563        C564   1.405   1_455  A
C564        F565   1.357       .  S
C569        C570   1.408       .  A
C569        C574   1.397       .  A
C569        F576   1.358       .  S
C570       C1219   1.412   1_455  A
C571       C1218   1.410       .  A
C571        C572   1.402       .  A
C571        F578   1.358       .  S
C572       C1221   1.404       .  A
C572        F577   1.357       .  S
C573       C1220   1.405   1_455  A
C573        C574   1.402       .  A
C574        F575   1.356       .  S
C579        C580   1.409       .  A
C579        C584   1.405       .  A
C579        F586   1.358       .  S
C580        C581   1.401       .  A
C581        C582   1.387       .  A
C582        C583   1.406       .  A
C582        F587   1.358       .  S
C583        C584   1.410       .  A
C584        F585   1.358       .  S
C589        C590   1.405       .  A
C589        C594   1.397       .  A
C589        F596   1.358       .  S
C590        C591   1.408       .  A
C591        C592   1.402       .  A
C591        F598   1.358       .  S
C592        C593   1.406       .  A
C592        F597   1.358       .  S
C593        C594   1.407       .  A
C594        F595   1.358       .  S
C599        C600   1.404       .  A
C599        C604   1.393       .  A
C599        F606   1.358       .  S
C600        C601   1.405       .  A
C601        C602   1.399       .  A
C601        F608   1.358       .  S
C602        C603   1.409       .  A
C602        F607   1.358       .  S
C603        C604   1.407       .  A
C604        F605   1.358       .  S
C609        C610   1.403       .  A
C609        C614   1.395       .  A
C609        F616   1.358       .  S
C610        C611   1.409       .  A
C611        C612   1.408       .  A
C611        F618   1.357       .  S
C612        C613   1.409       .  A
C612        F617   1.358       .  S
C613        C614   1.408       .  A
C614        F615   1.358       .  S
C619        C620   1.403       .  A
C619        C624   1.392       .  A
C619        F626   1.358       .  S
C620        C621   1.410       .  A
C621        C622   1.407       .  A
C621        F628   1.357       .  S
C622        C623   1.406       .  A
C622       F1275   1.358       .  S
C623        C624   1.408       .  A
C624        F625   1.358       .  S
F627       C1270   1.358       .  S
C629        C630   1.410       .  A
C629        C634   1.402       .  A
C629        F636   1.358       .  S
C630        C631   1.410       .  A
C631        C632   1.398       .  A
C631       F1286   1.358       .  S
C632        C633   1.403       .  A
C632       F1285   1.358   1_455  S
C633        C634   1.406       .  A
C634        F635   1.358       .  S
F637       C1280   1.358       .  S
F638       C1279   1.358       .  S
C639        C640   1.411       .  A
C639        C644   1.397       .  A
C639        F646   1.358       .  S
C640        C641   1.409       .  A
C641        C642   1.404       .  A
C642        C643   1.408       .  A
C642        F647   1.357       .  S
C643        C644   1.406       .  A
C644        F645   1.358       .  S
C649        C650   1.405       .  A
C649        C654   1.407       .  A
C649        C954   1.491       .  S
C650        C651   1.403       .  A
C650        H655   1.083       .  S
C651        C652   1.402       .  A
C651        C671   1.470       .  S
C652        C653   1.403       .  A
C652        H656   1.084       .  S
C653        C654   1.404       .  A
C653        C967   1.486       .  S
C654        H657   1.083       .  S
C658        C659   1.407       .  A
C658        C663   1.402       .  A
C658        C934   1.484       .  S
C659        C660   1.407       .  A
C659        H664   1.084       .  S
C660        C661   1.402       .  A
C660        C944   1.485       .  S
C661        C662   1.404       .  A
C661        H665   1.084       .  S
C662        C663   1.404       .  A
C662        C669   1.470       .  S
C663        H666   1.084       .  S
C667        C668   1.400       .  A
C667        C672   1.400       .  A
C667        C680   1.469       .  S
C668        C669   1.404       .  A
C668        H673   1.084       .  S
C669        C670   1.403       .  A
C670        C671   1.403       .  A
C670        H674   1.084       .  S
C671        C672   1.401       .  A
C672        H675   1.084       .  S
C676        C677   1.401       .  A
C676        C681   1.403       .  A
C676        C917   1.480       .  S
C677        C678   1.403       .  A
C677        H682   1.084       .  S
C678        C679   1.404       .  A
C678        C927   1.484       .  S
C679        C680   1.402       .  A
C679        H683   1.084       .  S
C680        C681   1.403       .  A
C681        H684   1.084       .  S
Zr685       O687   2.419       .  S
Zr685       O688   2.423       .  S
Zr685       O691   2.423       .  S
Zr685       O693   2.380       .  S
Zr685       O694   2.376       .  S
Zr685       O695   2.401       .  S
Zr685       O696   2.391       .  S
O686        H742   0.990       .  S
O686        H750   0.990   1_455  S
O687        C707   1.282       .  A
O688        C709   1.284       .  A
O689       Zr699   2.446       .  S
O689        C708   1.287       .  A
O690       Zr698   2.443   1_554  S
O690        C709   1.286       .  A
O691       C1032   1.283       .  A
O692      Zr1024   2.427   1_545  S
O692       C1031   1.281       .  A
O693       Zr698   2.400   1_554  S
O693       Zr700   2.383       .  S
O694      Zr1023   2.392       .  S
O694       Zr700   2.381       .  S
O694       H1053   0.966       .  S
O695       Zr698   2.402   1_554  S
O696      Zr1023   2.391       .  S
Zr697       O724   2.424       .  S
Zr697       O712   2.412       .  S
Zr697       O703   2.392       .  S
Zr697       O704   2.403       .  S
Zr697       O705   2.375       .  S
Zr697       O706   2.374       .  S
Zr697       O722   2.438       .  S
Zr698       O711   2.454       .  S
Zr698       O704   2.397       .  S
Zr698       O705   2.398       .  S
Zr698       O710   2.432   1_556  S
Zr699       O725   2.445   1_554  S
Zr699      O1018   2.394       .  S
Zr699      O1020   2.393   1_545  S
Zr699      O1027   2.402   1_554  S
Zr699      O1030   2.392   1_544  S
Zr699       O723   2.436       .  S
Zr700      O1016   2.420       .  S
Zr700       O703   2.396   1_554  S
Zr700       O704   2.387   1_554  S
Zr700      O1050   2.435   1_554  S
Zr700      O1051   2.437   1_554  S
Zr700       O702   2.440       .  S
O701        H738   0.990   1_655  S
O702        H733   0.991       .  S
O702        H747   0.990       .  S
O703      Zr1023   2.402   1_556  S
O704        H730   0.967       .  S
O706      Zr1023   2.391   1_556  S
C707       C1228   1.470       .  S
C707       O1016   1.280       .  A
C708        C897   1.475       .  S
C708       O1015   1.283   1_545  A
C709        C887   1.478       .  S
O710        H746   0.989       .  S
O711        C713   1.288       .  A
O712        C713   1.281       .  A
C713        C947   1.481       .  S
O714       Zr715   2.441   1_554  S
O714        H743   0.990       .  S
Zr715       O720   2.420       .  S
Zr715       O718   2.438       .  S
Zr715       O719   2.439   1_556  S
O716        C721   1.283       .  A
O717        H749   0.990   1_556  S
O718        H735   0.990       .  S
O719        H739   0.990   1_554  S
O719        H748   0.990       .  S
O720        C721   1.281       .  A
C721        C924   1.474       .  S
O722       H1065   0.990       .  S
O722        H745   0.990       .  S
O723        H737   0.990   1_554  S
O723        H744   0.990   1_554  S
O724       C1052   1.282       .  A
O725        C728   1.286       .  A
O726      Zr1024   2.434   1_546  S
O726        H736   0.990   1_556  S
O727      Zr1024   2.436   1_546  S
O727        H740   0.990       .  S
C728        C964   1.487       .  S
C728       O1048   1.281       .  A
H729       O1018   0.966       .  S
H741       O1046   0.990       .  S
Zr751       O754   2.429       .  S
Zr751       O757   2.411       .  S
Zr751       O759   2.376       .  S
Zr751       O760   2.380       .  S
Zr751       O761   2.400       .  S
Zr751       O762   2.398       .  S
Zr751       O752   2.440       .  S
O752        H808   0.990       .  S
O752       H1140   0.990       .  S
O753        C773   1.282       .  A
O754       C1099   1.283       .  A
O755       Zr765   2.453       .  S
O755        C774   1.288       .  A
O756       Zr764   2.439       .  S
O756        C775   1.285       .  A
O757        C774   1.283       .  A
O758       Zr766   2.431       .  S
O758        C773   1.283       .  A
O759      Zr1088   2.399       .  S
O760       Zr765   2.394       .  S
O761      Zr1088   2.401       .  S
O761       Zr781   2.402       .  S
O761       H1122   0.967       .  S
O762       Zr765   2.393       .  S
O762       Zr781   2.395       .  S
Zr763       O782   2.434       .  S
Zr763       O790   2.417       .  S
Zr763       O778   2.420       .  S
Zr763       O769   2.403       .  S
Zr763       O770   2.400       .  S
Zr763       O771   2.372       .  S
Zr763       O772   2.376       .  S
Zr764       O777   2.439       .  S
Zr764      O1083   2.397   1_545  S
Zr764      O1085   2.398       .  S
Zr764      O1094   2.403   1_545  S
Zr764      O1095   2.392       .  S
Zr764       O783   2.436       .  S
Zr765       O791   2.448       .  S
Zr765       O769   2.398       .  S
Zr765       O772   2.387       .  S
Zr765       O767   2.434       .  S
Zr766       O792   2.438       .  S
Zr766       O793   2.437       .  S
Zr766       O768   2.436       .  S
O767        H804   0.990       .  S
O768        H799   0.990       .  S
O768        H813   0.990       .  S
O770      Zr1088   2.400       .  S
O771      Zr1088   2.388       .  S
O771       Zr781   2.375       .  S
O772       Zr781   2.374       .  S
O772        H797   0.967       .  S
C773        C914   1.476       .  S
C774        C937   1.482       .  S
C775        C957   1.480       .  S
C775       O1078   1.284   1_545  A
O776       H1136   0.990       .  S
O777        C779   1.285       .  A
O778       C1103   1.282       .  A
C779        C874   1.471       .  S
C779       O1102   1.282       .  A
O780      Zr1105   2.438   1_545  S
O780        H809   0.990       .  S
Zr781      O1110   2.432       .  S
Zr781      O1104   2.437       .  S
Zr781      O1108   2.437       .  S
Zr781       O785   2.438       .  S
O782        C787   1.286       .  A
O783        H800   0.990       .  S
O783        H815   0.990       .  S
O784      Zr1105   2.437   1_545  S
O784        H801   0.990       .  S
O785       H1129   0.990       .  S
O785        H814   0.990       .  S
O786      Zr1105   2.433   1_545  S
O786       C1111   1.283       .  A
C787       C1188   1.481       .  S
C787       O1110   1.283       .  A
O788        H807   0.990       .  S
O788        H811   0.990       .  S
O789        H810   0.990       .  S
O790        C794   1.284       .  A
O791        C794   1.288       .  A
O792        H802   0.990       .  S
O793        H806   0.990       .  S
C794        C854   1.486       .  S
H798       O1085   0.967       .  S
H805       O1109   0.990       .  S
H812       O1100   0.990       .  S
H816       O1076   0.990       .  S
C817        C818   1.399       .  A
C817        C822   1.402       .  A
C817        C867   1.481       .  S
C818        C819   1.401       .  A
C818        H823   1.084       .  S
C819        C820   1.403       .  A
C819        C907   1.485       .  S
C820        C821   1.406       .  A
C820        H824   1.084       .  S
C821        C822   1.404       .  A
C821        C835   1.467       .  S
C822        H825   1.084       .  S
C826        C827   1.407       .  A
C826        C877   1.486       .  S
C827        C828   1.409       .  A
C827        H832   1.084       .  S
C828        C894   1.490       .  S
C829        C830   1.401       .  A
C829        H833   1.084       .  S
C830        C831   1.398       .  A
C830        C837   1.464       .  S
C831        H834   1.084       .  S
C835        C836   1.398       .  A
C835        C840   1.399       .  A
C836        C837   1.400       .  A
C836        H841   1.085       .  S
C837        C838   1.400       .  A
C838        C839   1.401       .  A
C839        C840   1.402       .  A
C840        H843   1.084       .  S
C844        C845   1.406       .  A
C844        C849   1.402       .  A
C844        C857   1.488       .  S
C845        C846   1.407       .  A
C845        H850   1.084       .  S
C846        C847   1.404       .  A
C847        C848   1.400       .  A
C847        H851   1.084       .  S
C848        C849   1.401       .  A
C848        C884   1.479       .  S
C849        H852   1.084       .  S
C853        C854   1.409       .  A
C853        C858   1.393       .  A
C853        F860   1.357       .  S
C854        C855   1.409       .  A
C855        C856   1.405       .  A
C855        F862   1.357       .  S
C856        C857   1.407       .  A
C856        F861   1.357       .  S
C857        C858   1.407       .  A
C858        F859   1.358       .  S
C863        C864   1.403       .  A
C863        C868   1.393       .  A
C863        F870   1.356       .  S
C864        C865   1.410       .  A
C864       C1111   1.479       .  S
C865        C866   1.404       .  A
C865        F872   1.357   1_545  S
C866        C867   1.405       .  A
C866        F871   1.358       .  S
C867        C868   1.407       .  A
C868        F869   1.358       .  S
C873        C874   1.403       .  A
C874        C875   1.403       .  A
C875        C876   1.397       .  A
C875        F882   1.356       .  S
C876        C877   1.407       .  A
C876        F881   1.358       .  S
C878        F879   1.358       .  S
C883        C884   1.405       .  A
C883        C888   1.391       .  A
C883        F890   1.359       .  S
C884        C885   1.407       .  A
C885        C886   1.405       .  A
C885        F892   1.357       .  S
C886        C887   1.408       .  A
C886        F891   1.357       .  S
C887        C888   1.406       .  A
C888        F889   1.357       .  S
C893        C894   1.408       .  A
C893        C898   1.398       .  A
C893        F900   1.358       .  S
C895        C896   1.403       .  A
C895        F902   1.358       .  S
C896        F901   1.357       .  S
C897        C898   1.403       .  A
C898        F899   1.356       .  S
C903        C904   1.409       .  A
C903        C908   1.406       .  A
C903        F910   1.358       .  S
C904        C905   1.403       .  A
C904       C1031   1.478       .  S
C905        C906   1.389       .  A
C905       F1236   1.356       .  S
C906        C907   1.408       .  A
C906        F911   1.358       .  S
C907        C908   1.409       .  A
C908        F909   1.358       .  S
F912       C1229   1.356       .  S
C913        C914   1.406       .  A
C913        C918   1.397       .  A
C913        F920   1.358       .  S
C914        C915   1.407       .  A
C915        C916   1.400       .  A
C915        F922   1.358       .  S
C916        C917   1.406       .  A
C916        F921   1.358       .  S
C917        C918   1.407       .  A
C918        F919   1.358       .  S
C923        C924   1.405       .  A
C923        C928   1.395       .  A
C923        F930   1.358       .  S
C924        C925   1.406       .  A
C925        C926   1.400       .  A
C925        F932   1.358       .  S
C926        C927   1.409       .  A
C926        F931   1.358       .  S
C927        C928   1.407       .  A
C928        F929   1.358       .  S
C933        C934   1.403       .  A
C933        C938   1.393       .  A
C933        F940   1.358       .  S
C934        C935   1.409       .  A
C935        C936   1.408       .  A
C935        F942   1.357       .  S
C936        C937   1.409       .  A
C936        F941   1.358       .  S
C937        C938   1.407       .  A
C938        F939   1.358       .  S
C943        C944   1.403       .  A
C943        C948   1.393       .  A
C943        F950   1.358       .  S
C944        C945   1.410       .  A
C945        C946   1.408       .  A
C945        F952   1.357       .  S
C946        C947   1.407       .  A
C947        C948   1.408       .  A
C948        F949   1.358       .  S
C953        C954   1.411       .  A
C953        C958   1.403       .  A
C953        F960   1.358       .  S
C954        C955   1.409       .  A
C955        C956   1.398       .  A
C956        C957   1.405       .  A
C957        C958   1.407       .  A
C958        F959   1.358       .  S
C963        C964   1.411       .  A
C963        C968   1.396       .  A
C963        F970   1.358       .  S
C964        C965   1.408       .  A
C965        C966   1.403       .  A
C965       F1296   1.357       .  S
C966        C967   1.408       .  A
C966        F971   1.358       .  S
C967        C968   1.405       .  A
C968        F969   1.358       .  S
F972       C1289   1.357       .  S
C973        C974   1.406       .  A
C973        C978   1.407       .  A
C973       C1278   1.491       .  S
C974        C975   1.404       .  A
C974        H979   1.083       .  S
C975        C976   1.401       .  A
C975        C995   1.470       .  S
C976        C977   1.402       .  A
C976        H980   1.084       .  S
C977        C978   1.404       .  A
C977       C1291   1.484       .  S
C978        H981   1.083       .  S
C982        C983   1.408       .  A
C982        C987   1.403       .  A
C982       C1258   1.486       .  S
C983        C984   1.407       .  A
C983        H988   1.084       .  S
C984        C985   1.402       .  A
C984       C1268   1.485       .  S
C985        C986   1.404       .  A
C985        H989   1.084       .  S
C986        C987   1.405       .  A
C986        C993   1.472       .  S
C987        H990   1.084       .  S
C991        C992   1.400       .  A
C991        C996   1.398       .  A
C991       C1004   1.467       .  S
C992        C993   1.404       .  A
C992        H997   1.084       .  S
C993        C994   1.404       .  A
C994        C995   1.404       .  A
C994        H998   1.084       .  S
C995        C996   1.400       .  A
C996        H999   1.085       .  S
C1000      C1001   1.402       .  A
C1000      C1005   1.402       .  A
C1000      C1241   1.481       .  S
C1001      C1002   1.404       .  A
C1001      H1006   1.084       .  S
C1002      C1003   1.403       .  A
C1002      C1251   1.483       .  S
C1003      C1004   1.401       .  A
C1003      H1007   1.084       .  S
C1004      C1005   1.403       .  A
C1005      H1008   1.084       .  S
Zr1009     O1011   2.425       .  S
Zr1009     O1012   2.425       .  S
Zr1009     O1015   2.424       .  S
Zr1009     O1017   2.378       .  S
Zr1009     O1018   2.375   1_565  S
Zr1009     O1019   2.404       .  S
Zr1009     O1020   2.394       .  S
O1010      H1066   0.990       .  S
O1010      H1074   0.990   1_455  S
O1011      C1031   1.284   1_565  A
O1012      C1033   1.284       .  A
O1013     Zr1023   2.445       .  S
O1013      C1032   1.286       .  A
O1014     Zr1022   2.441   1_554  S
O1014      C1033   1.285       .  A
O1017     Zr1022   2.402   1_554  S
O1017     Zr1024   2.381       .  S
O1018     Zr1024   2.379   1_545  S
O1019     Zr1022   2.406   1_554  S
Zr1021     O1048   2.422   1_565  S
Zr1021     O1036   2.416       .  S
Zr1021     O1027   2.393   1_565  S
Zr1021     O1028   2.402       .  S
Zr1021     O1029   2.375       .  S
Zr1021     O1030   2.380       .  S
Zr1021     O1046   2.440       .  S
Zr1022     O1035   2.452       .  S
Zr1022     O1028   2.400       .  S
Zr1022     O1029   2.397       .  S
Zr1022     O1034   2.433   1_556  S
Zr1023     O1049   2.441   1_554  S
Zr1023     O1047   2.435       .  S
Zr1024     O1027   2.396   1_564  S
Zr1024     O1028   2.388   1_554  S
Zr1024     O1026   2.439   1_554  S
O1025      H1062   0.990   1_655  S
O1026      H1057   0.990   1_556  S
O1026      H1071   0.990   1_556  S
O1028      H1054   0.967       .  S
C1032      C1221   1.474       .  S
C1033      C1211   1.479       .  S
O1034      H1070   0.990       .  S
O1035      C1037   1.287       .  A
O1036      C1037   1.282       .  A
C1037      C1271   1.481       .  S
O1038     Zr1039   2.438   1_554  S
O1038      H1067   0.990       .  S
Zr1039     O1044   2.414       .  S
Zr1039     O1042   2.438       .  S
Zr1039     O1043   2.438   1_556  S
O1040      C1045   1.283       .  A
O1041      H1073   0.990   1_556  S
O1042      H1059   0.990       .  S
O1043      H1063   0.990   1_554  S
O1043      H1072   0.990       .  S
O1044      C1045   1.279       .  A
C1045      C1248   1.470       .  S
O1046      H1069   0.990       .  S
O1047      H1061   0.990   1_554  S
O1047      H1068   0.990       .  S
O1049      C1052   1.285       .  A
O1050      H1060   0.990   1_556  S
O1051      H1064   0.990       .  S
C1052      C1288   1.487       .  S
Zr1075     O1078   2.437       .  S
Zr1075     O1081   2.411       .  S
Zr1075     O1083   2.374       .  S
Zr1075     O1084   2.382       .  S
Zr1075     O1085   2.402   1_565  S
Zr1075     O1086   2.404       .  S
Zr1075     O1076   2.439       .  S
O1076      H1132   0.990       .  S
O1077      C1097   1.284       .  A
O1079     Zr1089   2.450       .  S
O1079      C1098   1.287       .  A
O1080     Zr1088   2.437       .  S
O1080      C1099   1.285       .  A
O1081      C1098   1.283       .  A
O1082     Zr1090   2.431       .  S
O1082      C1097   1.282       .  A
O1084     Zr1089   2.395       .  S
O1085     Zr1105   2.403   1_545  S
O1086     Zr1089   2.393       .  S
O1086     Zr1105   2.398       .  S
Zr1087     O1106   2.430       .  S
Zr1087     O1114   2.429       .  S
Zr1087     O1102   2.426   1_565  S
Zr1087     O1093   2.402       .  S
Zr1087     O1094   2.403       .  S
Zr1087     O1095   2.376   1_565  S
Zr1087     O1096   2.377       .  S
Zr1088     O1101   2.442       .  S
Zr1088     O1107   2.436       .  S
Zr1089     O1115   2.445       .  S
Zr1089     O1093   2.398       .  S
Zr1089     O1096   2.388       .  S
Zr1089     O1091   2.436       .  S
Zr1090     O1116   2.437       .  S
Zr1090     O1117   2.436       .  S
Zr1090     O1092   2.437       .  S
O1091      H1128   0.990       .  S
O1092      H1123   0.990       .  S
O1092      H1137   0.990       .  S
O1095     Zr1105   2.374   1_545  S
O1096     Zr1105   2.376       .  S
O1096      H1121   0.967       .  S
C1097      C1238   1.479       .  S
C1098      C1261   1.481       .  S
C1099      C1281   1.476       .  S
O1101      C1103   1.285       .  A
C1103      C1198   1.470       .  S
O1104      H1133   0.990       .  S
Zr1105     O1109   2.439       .  S
O1106      C1111   1.284   1_565  A
O1107      H1124   0.990       .  S
O1107      H1139   0.990       .  S
O1108      H1125   0.990       .  S
O1109      H1138   0.990       .  S
O1112      H1131   0.990       .  S
O1112      H1135   0.990       .  S
O1113      H1134   0.990       .  S
O1114      C1118   1.286       .  A
O1115      C1118   1.287       .  A
O1116      H1126   0.990       .  S
O1117      H1130   0.990       .  S
C1118      C1178   1.488       .  S
C1141      C1142   1.401       .  A
C1141      C1146   1.404       .  A
C1141      C1191   1.486       .  S
C1142      C1143   1.403       .  A
C1142      H1147   1.084       .  S
C1143      C1144   1.401       .  A
C1143      C1231   1.483       .  S
C1144      C1145   1.403       .  A
C1144      H1148   1.084       .  S
C1145      C1146   1.407       .  A
C1145      C1159   1.468       .  S
C1146      H1149   1.084       .  S
C1150      C1151   1.407       .  A
C1150      C1201   1.487       .  S
C1151      C1152   1.407       .  A
C1151      H1156   1.083       .  S
C1152      C1218   1.488       .  S
C1153      C1154   1.403       .  A
C1153      H1157   1.083       .  S
C1154      C1155   1.400       .  A
C1154      C1161   1.470       .  S
C1155      H1158   1.084       .  S
C1159      C1160   1.398       .  A
C1159      C1164   1.401       .  A
C1160      C1161   1.400       .  A
C1160      H1165   1.085       .  S
C1161      C1162   1.403       .  A
C1162      C1163   1.404       .  A
C1163      C1164   1.404       .  A
C1164      H1167   1.084       .  S
C1168      C1169   1.406       .  A
C1168      C1173   1.405       .  A
C1168      C1181   1.489       .  S
C1169      C1170   1.406       .  A
C1169      H1174   1.084       .  S
C1170      C1171   1.403       .  A
C1171      C1172   1.400       .  A
C1171      H1175   1.084       .  S
C1172      C1173   1.402       .  A
C1172      C1208   1.480       .  S
C1173      H1176   1.084       .  S
C1177      C1178   1.408       .  A
C1177      C1182   1.393       .  A
C1177      F1184   1.357       .  S
C1178      C1179   1.411       .  A
C1179      C1180   1.407       .  A
C1179      F1186   1.358       .  S
C1180      C1181   1.409       .  A
C1180      F1185   1.358       .  S
C1181      C1182   1.407       .  A
C1182      F1183   1.358       .  S
C1187      C1188   1.403       .  A
C1187      C1192   1.394       .  A
C1187      F1194   1.356       .  S
C1188      C1189   1.410       .  A
C1189      C1190   1.405       .  A
C1189      F1196   1.358       .  S
C1190      C1191   1.407       .  A
C1190      F1195   1.358       .  S
C1191      C1192   1.408       .  A
C1192      F1193   1.358       .  S
C1197      C1198   1.402       .  A
C1198      C1199   1.402       .  A
C1199      C1200   1.397       .  A
C1199      F1206   1.356       .  S
C1200      C1201   1.408       .  A
C1200      F1205   1.358       .  S
C1202      F1203   1.358       .  S
C1207      C1208   1.404       .  A
C1207      C1212   1.391       .  A
C1207      F1214   1.358       .  S
C1208      C1209   1.407       .  A
C1209      C1210   1.406       .  A
C1209      F1216   1.357       .  S
C1210      C1211   1.409       .  A
C1210      F1215   1.358       .  S
C1211      C1212   1.406       .  A
C1212      F1213   1.358       .  S
C1217      C1218   1.409       .  A
C1217      C1222   1.398       .  A
C1217      F1224   1.358       .  S
C1219      C1220   1.404       .  A
C1219      F1226   1.358       .  S
C1220      F1225   1.358       .  S
C1221      C1222   1.403       .  A
C1222      F1223   1.356       .  S
C1227      C1228   1.407       .  A
C1227      C1232   1.403       .  A
C1227      F1234   1.358       .  S
C1228      C1229   1.401       .  A
C1229      C1230   1.388       .  A
C1230      C1231   1.407       .  A
C1230      F1235   1.358       .  S
C1231      C1232   1.410       .  A
C1232      F1233   1.357       .  S
C1237      C1238   1.406       .  A
C1237      C1242   1.396       .  A
C1237      F1244   1.358       .  S
C1238      C1239   1.409       .  A
C1239      C1240   1.402       .  A
C1239      F1246   1.358       .  S
C1240      C1241   1.407       .  A
C1240      F1245   1.358       .  S
C1241      C1242   1.405       .  A
C1242      F1243   1.358       .  S
C1247      C1248   1.403       .  A
C1247      C1252   1.393       .  A
C1247      F1254   1.358       .  S
C1248      C1249   1.405       .  A
C1249      C1250   1.400       .  A
C1249      F1256   1.358       .  S
C1250      C1251   1.410       .  A
C1250      F1255   1.358       .  S
C1251      C1252   1.408       .  A
C1252      F1253   1.358       .  S
C1257      C1258   1.403       .  A
C1257      C1262   1.393       .  A
C1257      F1264   1.358       .  S
C1258      C1259   1.410       .  A
C1259      C1260   1.408       .  A
C1259      F1266   1.357       .  S
C1260      C1261   1.408       .  A
C1260      F1265   1.358       .  S
C1261      C1262   1.407       .  A
C1262      F1263   1.358       .  S
C1267      C1268   1.403       .  A
C1267      C1272   1.393       .  A
C1267      F1274   1.358       .  S
C1268      C1269   1.410       .  A
C1269      C1270   1.408       .  A
C1269      F1276   1.357       .  S
C1270      C1271   1.407       .  A
C1271      C1272   1.408       .  A
C1272      F1273   1.358       .  S
C1277      C1278   1.411       .  A
C1277      C1282   1.401       .  A
C1277      F1284   1.357       .  S
C1278      C1279   1.410       .  A
C1279      C1280   1.398       .  A
C1280      C1281   1.404       .  A
C1281      C1282   1.405       .  A
C1282      F1283   1.358       .  S
C1287      C1288   1.411       .  A
C1287      C1292   1.396       .  A
C1287      F1294   1.357       .  S
C1288      C1289   1.409       .  A
C1289      C1290   1.403       .  A
C1290      C1291   1.408       .  A
C1290      F1295   1.358       .  S
C1291      C1292   1.404       .  A
C1292      F1293   1.358       .  S
