geometry optimzed in LAMMPS
_audit_creation_date              2020-12-01 
_audit_creation_method            'lammps2cif' 
_symmetry_space_group_name_H-M    'P1' 
_symmetry_Int_Tables_number       1 
_symmetry_cell_setting            triclinic 
loop_ 
_symmetry_equiv_pos_as_xyz 
  x,y,z 
_cell_length_a                    32.21578641 
_cell_length_b                    32.209805982599015 
_cell_length_c                    46.530509909915544 
_cell_angle_alpha                 88.78324133171763 
_cell_angle_beta                  88.44745150562534 
_cell_angle_gamma                 84.62347314767185 
loop_ 
_atom_site_label 
_atom_site_type_symbol 
_atom_site_fract_x 
_atom_site_fract_y 
_atom_site_fract_z 
_atom_site_charge 
C1          C  0.26455653  0.01221038  0.25431672    -0.02800
C2          C  0.46100657  0.23048495  0.02170124     0.01900
C3          C  0.46000643  0.23221442  0.99130616     0.01900
C4          C  0.99824297  0.23889025  0.97476228    -0.18600
C5          C  0.03559891  0.23798309  0.98932433     0.01900
C6          C  0.03552819  0.23176799  0.01930650     0.01900
C7          C  0.99796701  0.22804577  0.03416060    -0.18600
H8          H  0.99792963  0.22504518  0.05745144     0.03900
H9          H  0.99863796  0.24265690  0.95152292     0.03900
C10         C  0.23939023  0.98858010  0.75815027    -0.02800
C11         C  0.99604808  0.24445364  0.74558954    -0.02800
C12         C  0.27723261  0.46614929  0.98005160     0.01900
C13         C  0.27876376  0.45936466  0.01013739     0.01900
C14         C  0.27761706  0.99562391  0.02659543    -0.18600
C15         C  0.27622232  0.03652758  0.01538676     0.01900
C16         C  0.27100559  0.04247312  0.98541960     0.01900
C17         C  0.26802685  0.00811884  0.96801126    -0.18600
H18         H  0.26329742  0.01313696  0.94512897     0.03900
H19         H  0.27980603  0.99062225  0.04966185     0.03900
O20         O  0.32484225  0.25286871  0.88583783    -0.80500
O21         O  0.19575079  0.16537806  0.83155704    -0.80500
O22         O  0.27582388  0.18791884  0.89013488    -0.80500
O23         O  0.31867785  0.21979664  0.81822397    -0.81300
O24         O  0.21032013  0.17449148  0.88909776    -0.80600
O25         O  0.32613870  0.28363969  0.82969161    -0.80500
O26         O  0.26133444  0.16671583  0.81821868    -0.80500
O27         O  0.28839707  0.25090581  0.92613387    -0.80500
C28         C  0.32347631  0.24941997  0.91363637     1.09200
C29         C  0.22907395  0.14784866  0.82026614     1.09100
C30         C  0.24742628  0.16560570  0.89763620     1.09200
C31         C  0.34091812  0.24982074  0.81830695     1.09100
O32         O  0.24266902  0.32187070  0.83539845    -0.80500
O33         O  0.16730019  0.25996681  0.88452824    -0.80600
O34         O  0.24374187  0.31116507  0.89590080    -0.80500
O35         O  0.19884610  0.22866738  0.79284588    -0.80500
O36         O  0.15837254  0.25106761  0.82892940    -0.80500
O37         O  0.29940279  0.33431659  0.87563677    -0.80500
O38         O  0.25929768  0.28668014  0.79567542    -0.80500
O39         O  0.21034332  0.23972177  0.91742822    -0.80500
Co40       Co  0.27946083  0.28584034  0.85991665     1.51500
Co41       Co  0.18645491  0.21482882  0.85820182     1.51700
Co42       Co  0.25986389  0.24760890  0.89116944     1.51600
Co43       Co  0.25874567  0.22650439  0.80891682     1.51500
O44         O  0.24184321  0.24044018  0.85043637    -1.42400
C45         C  0.24852794  0.32076639  0.80851303     1.09100
C46         C  0.17365855  0.25153169  0.91039873     1.09200
C47         C  0.26965593  0.33943180  0.89404858     1.09100
C48         C  0.16271549  0.24254737  0.80275824     1.09100
O49         O  0.32468632  0.31311954  0.17300311    -0.80500
O50         O  0.24485802  0.17876365  0.11926302    -0.80500
O51         O  0.26939738  0.19099567  0.18439697    -0.80500
O52         O  0.31374284  0.23087650  0.11823674    -0.80500
O53         O  0.20602047  0.18285697  0.17345282    -0.80600
O54         O  0.32256435  0.29752607  0.11615747    -0.80500
O55         O  0.25852847  0.21075915  0.07861747    -0.80500
O56         O  0.32286650  0.24763633  0.18654508    -0.80500
C57         C  0.34242315  0.27957801  0.18371834     1.09200
C58         C  0.25521241  0.17704000  0.09209121     1.09100
C59         C  0.23944605  0.16891730  0.18539529     1.09200
C60         C  0.33531678  0.25983861  0.11036527     1.09100
O61         O  0.23670502  0.33742674  0.11439235    -0.80500
O62         O  0.16733313  0.26542792  0.16284201    -0.80600
O63         O  0.25970073  0.31045311  0.20893489    -0.80500
O64         O  0.19178938  0.25546898  0.10181907    -0.80500
O65         O  0.16282437  0.20355868  0.12355716    -0.80500
O66         O  0.23829456  0.34953446  0.17207776    -0.80500
O67         O  0.26260413  0.28997183  0.08530182    -0.80500
O68         O  0.19929521  0.25253846  0.20407156    -0.80500
Co69       Co  0.27796104  0.32113979  0.14425805     1.51500
Co70       Co  0.20770960  0.22664117  0.14154281     1.51700
Co71       Co  0.26192998  0.25075518  0.19355476     1.51600
Co72       Co  0.25405833  0.24263316  0.11233899     1.51500
O73         O  0.25173040  0.26581841  0.15183630    -1.42400
C74         C  0.24767538  0.32695384  0.08925582     1.09100
C75         C  0.16593296  0.26351022  0.19006084     1.09200
C76         C  0.24639315  0.34614328  0.19840392     1.09100
C77         C  0.16287253  0.23028095  0.10313758     1.09100
O78         O  0.08023330  0.99040635  0.66942906    -0.80500
O79         O  0.48475170  0.43300243  0.60161505    -0.80500
O80         O  0.00258041  0.43945369  0.69353020    -0.80500
O81         O  0.02992423  0.49776162  0.58069728    -0.80500
O82         O  0.47900191  0.40603191  0.65697596    -0.80600
O83         O  0.08054557  0.98363455  0.61317211    -0.80500
O84         O  0.95599579  0.47863490  0.56885375    -0.80500
O85         O  0.04274723  0.50927155  0.70491938    -0.80500
C86         C  0.07701696  0.00056861  0.69526558     1.09200
C87         C  0.47340180  0.44091490  0.57546700     1.09100
C88         C  0.49485862  0.40486568  0.68135252     1.09200
C89         C  0.06922351  0.98512636  0.58771241     1.09100
O90         O  0.03389903  0.06627972  0.60745519    -0.80500
O91         O  0.42148588  0.47620233  0.67485346    -0.80600
O92         O  0.47251584  0.06217154  0.68062836    -0.80500
O93         O  0.41438771  0.99934997  0.61694899    -0.80500
O94         O  0.40788113  0.43444479  0.62560607    -0.80500
O95         O  0.03660058  0.07382414  0.66628886    -0.80500
O96         O  0.46743544  0.05691417  0.59834864    -0.80500
O97         O  0.44325526  0.99944159  0.71471746    -0.80500
Co98       Co  0.05484147  0.02643834  0.63924062     1.51500
Co99       Co  0.45746312  0.45802940  0.63804125     1.51700
Co100      Co  0.98569259  0.00034684  0.68470005     1.51600
Co101      Co  0.97722913  0.99599881  0.60460941     1.51500
O102        O  0.00304832  0.99602666  0.64433449    -1.42400
C103        C  0.99919433  0.07740240  0.59545993     1.09100
C104        C  0.41556655  0.48882048  0.70114077     1.09200
C105        C  0.00197116  0.08618430  0.67866132     1.09100
C106        C  0.39406424  0.46929517  0.61446339     1.09100
O107        O  0.99053346  0.09810768  0.33084908    -0.80500
O108        O  0.41778621  0.46254793  0.38244881    -0.80500
O109        O  0.45751099  0.01026236  0.30099476    -0.80500
O110        O  0.02321983  0.04032651  0.41578938    -0.80500
O111        O  0.42321613  0.52528619  0.34177199    -0.80600
O112        O  0.99307302  0.08687446  0.38725069    -0.80500
O113        O  0.45625107  0.00329749  0.40627657    -0.80500
O114        O  0.51549342  0.06987647  0.29437614    -0.80500
C115        C  0.99869957  0.09949993  0.30443306     1.09200
C116        C  0.42333022  0.48228318  0.40513311     1.09100
C117        C  0.42131089  0.52127835  0.31477106     1.09200
C118        C  0.00315774  0.07538883  0.41220096     1.09100
O119        O  0.08130020  0.05303582  0.38217302    -0.80500
O120        O  0.45988908  0.44302798  0.33123743    -0.80600
O121        O  0.07715443  0.50277603  0.31137806    -0.80500
O122        O  0.02134918  0.45861619  0.42086345    -0.80500
O123        O  0.49944794  0.43559550  0.38209968    -0.80500
O124        O  0.07943863  0.06806353  0.32456485    -0.80500
O125        O  0.07580787  0.48466726  0.38059299    -0.80500
O126        O  0.02226965  0.44590320  0.31454328    -0.80500
Co127      Co  0.03399223  0.07377379  0.35590516     1.51500
Co128      Co  0.46276845  0.48534820  0.36233910     1.51700
Co129      Co  0.01658169  0.50677691  0.30657545     1.51600
Co130      Co  0.01524112  0.49334694  0.38859881     1.51500
O131        O  0.00893376  0.51842457  0.34919518    -1.42400
C132        C  0.09680249  0.01588913  0.38790080     1.09100
C133        C  0.49254844  0.42710701  0.31842984     1.09200
C134        C  0.09838750  0.03470348  0.31460209     1.09100
C135        C  0.51384292  0.42951975  0.40772639     1.09100
C136        C  0.50361183  0.29242026  0.50934600     0.01900
C137        C  0.51235262  0.28508932  0.47986560     0.01900
C138        C  0.51217874  0.24480281  0.46945421    -0.18600
C139        C  0.50502404  0.21143991  0.48790923     0.01900
C140        C  0.49951644  0.21814529  0.51750562     0.01900
C141        C  0.49690393  0.25858579  0.52773867    -0.18600
H142        H  0.49049097  0.26355328  0.55048040     0.03900
H143        H  0.51692356  0.23941971  0.44659542     0.03900
C144        C  0.28200152  0.97909484  0.51800524     0.01900
C145        C  0.29032400  0.98212017  0.48797312     0.01900
C146        C  0.25765095  0.49076961  0.46927326    -0.18600
C147        C  0.21547114  0.99489441  0.47939378     0.01900
C148        C  0.20702090  0.98800236  0.50894728     0.01900
C149        C  0.24034355  0.98160519  0.52779851    -0.18600
H150        H  0.23364840  0.97817756  0.55067459     0.03900
H151        H  0.26444619  0.49090494  0.44629807     0.03900
C152        C  0.99731639  0.26910580  0.25003625    -0.02800
C153        C  0.46539866  0.38511845  0.28098209    -0.20700
C154        C  0.49342742  0.38714574  0.30298149    -0.07200
C155        C  0.02543131  0.35397292  0.30376047     0.13600
C156        C  0.02664862  0.31848622  0.28633572    -0.20700
C157        C  0.49642279  0.31480804  0.26737528    -0.07200
C158        C  0.46887794  0.35216080  0.26146781     0.13600
C159        C  0.44646538  0.36310610  0.23370970    -0.24100
H160        H  0.44304860  0.41193341  0.27714233     0.14900
H161        H  0.05296129  0.29564010  0.28819404     0.14900
C162        C  0.06016095  0.35770176  0.32435270    -0.24000
H163        H  0.44894704  0.39641655  0.22776271     0.05200
H164        H  0.41276292  0.35910760  0.23637487     0.08400
H165        H  0.96024326  0.34461104  0.21471959     0.08400
H166        H  0.54212206  0.35888585  0.35024803     0.08400
H167        H  0.07740212  0.38493944  0.31826305     0.08400
H168        H  0.08296434  0.32961779  0.32421379     0.05100
C169        C  0.49244412  0.19339409  0.25126570    -0.20700
C170        C  0.99434216  0.22635955  0.26703483    -0.07200
C171        C  0.99126004  0.21855837  0.29751183     0.13600
C172        C  0.99134971  0.17706697  0.30795445    -0.20700
C173        C  0.99430687  0.14202241  0.29003839    -0.07200
C174        C  0.49216121  0.15239989  0.26249506     0.13600
C175        C  0.48948079  0.11698595  0.24222444    -0.24100
H176        H  0.49350344  0.19716047  0.22810510     0.14900
H177        H  0.99075837  0.17195221  0.33104994     0.14900
C178        C  0.98981795  0.25129167  0.32042894    -0.24000
H179        H  0.48549733  0.12829567  0.21966504     0.05200
H180        H  0.46225509  0.09968716  0.24843316     0.08400
H181        H  0.02436244  0.09307028  0.24130977     0.08400
H182        H  0.47033760  0.28400091  0.31542620     0.08400
H183        H  0.02164628  0.25938866  0.32475219     0.08400
H184        H  0.97742693  0.23949123  0.34125225     0.05100
C185        C  0.03018185  0.10497791  0.45499226    -0.20700
C186        C  0.99723579  0.10476441  0.43589474    -0.07200
C187        C  0.46341437  0.13796766  0.43770247     0.13600
C188        C  0.46527023  0.17004642  0.45719214    -0.20700
C189        C  0.00113876  0.17157942  0.47296097    -0.07200
C190        C  0.03358238  0.13908018  0.47247499     0.13600
C191        C  0.07368978  0.14093254  0.48788118    -0.24100
H192        H  0.05593185  0.08076560  0.45394124     0.14900
H193        H  0.44166599  0.19639229  0.45687172     0.14900
C194        C  0.42837168  0.14139475  0.41655641    -0.24000
H195        H  0.10050534  0.13460184  0.47261989     0.05200
H196        H  0.07552159  0.11705842  0.50541826     0.08400
H197        H  0.07656264  0.17191740  0.49685250     0.08400
H198        H  0.41225431  0.11251875  0.41669342     0.08400
H199        H  0.44062478  0.14762331  0.39454359     0.08400
H200        H  0.40455720  0.16752949  0.42179453     0.05100
C201        C  0.04672754  0.37951422  0.44128238    -0.20700
C202        C  0.51834226  0.38780315  0.42125452    -0.07200
C203        C  0.48888787  0.35850105  0.41762656     0.13600
C204        C  0.48822820  0.32496218  0.43704077    -0.20700
C205        C  0.51749757  0.31886334  0.45878177    -0.07200
C206        C  0.04708446  0.34527634  0.46008924     0.13600
C207        C  0.08331358  0.33595234  0.47975886    -0.24100
H208        H  0.07001246  0.40134088  0.44341198     0.14900
H209        H  0.46391250  0.30397569  0.43585441     0.14900
C210        C  0.45655125  0.36311989  0.39475438    -0.24000
H211        H  0.10768139  0.35776058  0.47575297     0.05200
H212        H  0.09777488  0.30377112  0.47615806     0.08400
H213        H  0.07308827  0.33898603  0.50245427     0.08400
H214        H  0.47174388  0.36479365  0.37313937     0.08400
H215        H  0.43543657  0.39143351  0.39862582     0.08400
H216        H  0.43710901  0.33639005  0.39496032     0.05100
C217        C  0.17378848  0.46644099  0.44202896    -0.20700
C218        C  0.18317813  0.00162767  0.45728815    -0.07200
C219        C  0.17493282  0.04065547  0.44299900     0.13600
C220        C  0.14800160  0.04403886  0.41971187    -0.20700
C221        C  0.13159942  0.00889869  0.40857405    -0.07200
C222        C  0.14479472  0.96897315  0.42054613     0.13600
C223        C  0.14198186  0.42970306  0.40229529    -0.24100
H224        H  0.18693321  0.43613481  0.44968716     0.14900
H225        H  0.13985735  0.07463668  0.41021329     0.14900
C226        C  0.19490734  0.07915829  0.45111330    -0.24000
H227        H  0.16076452  0.40228049  0.41166240     0.05200
H228        H  0.15183641  0.43287420  0.37935611     0.08400
H229        H  0.10330432  0.92475825  0.40619870     0.08400
H230        H  0.20270982  0.59667353  0.43703863     0.08400
H231        H  0.21477743  0.07413328  0.47017754     0.08400
H232        H  0.17043879  0.10484456  0.45588017     0.05100
C233        C  0.36186182  0.00175631  0.47598744    -0.20700
C234        C  0.33259375  0.47445434  0.47490130    -0.07200
C235        C  0.33862230  0.44325249  0.45384239     0.13600
C236        C  0.36840885  0.44679860  0.43173794    -0.20700
C237        C  0.39445859  0.47941402  0.43073892    -0.07200
C238        C  0.39464942  0.00324520  0.45538164     0.13600
C239        C  0.42777154  0.03184914  0.46063726    -0.24100
H240        H  0.35865574  0.02389285  0.49332621     0.14900
H241        H  0.37047639  0.42408591  0.41480430     0.14900
C242        C  0.31207787  0.40711387  0.45317518    -0.24000
H243        H  0.42237209  0.04849519  0.48127348     0.05200
H244        H  0.42025205  0.56103398  0.43856165     0.08400
H245        H  0.45873326  0.01362592  0.46152077     0.08400
H246        H  0.29391882  0.40892470  0.43316853     0.08400
H247        H  0.29000294  0.40645937  0.47185989     0.08400
H248        H  0.33250156  0.37737254  0.45362213     0.05100
C249        C  0.10866450  0.02137865  0.55110794    -0.20700
C250        C  0.10057227  0.98330558  0.56417808    -0.07200
C251        C  0.12391931  0.94623174  0.55553864     0.13600
C252        C  0.14378327  0.46448009  0.52271272    -0.20700
C253        C  0.16482533  0.98679476  0.52208764    -0.07200
C254        C  0.14144539  0.02376976  0.53095858     0.13600
C255        C  0.15255884  0.06597016  0.52075898    -0.24100
H256        H  0.09079407  0.04981264  0.55803351     0.14900
H257        H  0.15506414  0.43849621  0.50927682     0.14900
C258        C  0.09069180  0.42005680  0.54419305    -0.24000
H259        H  0.13422000  0.09149205  0.53247809     0.05200
H260        H  0.16766646  0.58934222  0.51669608     0.08400
H261        H  0.18604701  0.06923323  0.52420885     0.08400
H262        H  0.05767974  0.42725425  0.53847545     0.08400
H263        H  0.09541336  0.90663616  0.58758263     0.08400
H264        H  0.10530709  0.39693793  0.52872844     0.05100
C265        C  0.31579477  0.51447049  0.55956800    -0.20700
C266        C  0.31309812  0.48014908  0.54174475    -0.07200
C267        C  0.33223975  0.44085528  0.55060076     0.13600
C268        C  0.35599124  0.43755579  0.57573577    -0.20700
C269        C  0.36056102  0.47246331  0.59272207    -0.07200
C270        C  0.33851152  0.51104417  0.58506102     0.13600
C271        C  0.33674868  0.54818002  0.60441317    -0.24100
H272        H  0.29873395  0.54398274  0.55389460     0.14900
H273        H  0.37262179  0.40781293  0.58136786     0.14900
C274        C  0.33440319  0.89915713  0.53040214    -0.24000
H275        H  0.31508380  0.57442668  0.59633013     0.05200
H276        H  0.36778924  0.55989037  0.60585032     0.08400
H277        H  0.34499417  0.03543008  0.62622014     0.08400
H278        H  0.29440069  0.39778143  0.53136953     0.08400
H279        H  0.35240628  0.87144646  0.54001950     0.08400
H280        H  0.34805827  0.90470298  0.50871684     0.05100
C281        C  0.03037740  0.13849611  0.57453967    -0.20700
C282        C  0.99588837  0.11492320  0.57641247    -0.07200
C283        C  0.46119477  0.12721688  0.55883855     0.13600
C284        C  0.46355438  0.16087852  0.53955401    -0.20700
C285        C  0.99799991  0.18196624  0.53690102    -0.07200
C286        C  0.03215979  0.17140128  0.55484812     0.13600
C287        C  0.07169705  0.19304824  0.55332297    -0.24100
H288        H  0.05707704  0.13054487  0.58793462     0.14900
H289        H  0.43837012  0.16928546  0.52493454     0.14900
C290        C  0.42314351  0.10329101  0.55800728    -0.24000
H291        H  0.09881789  0.16968011  0.54959549     0.05200
H292        H  0.07568560  0.20874368  0.57393911     0.08400
H293        H  0.07214635  0.21637889  0.53560820     0.08400
H294        H  0.40043939  0.11680657  0.54201856     0.08400
H295        H  0.90802589  0.10390811  0.58055307     0.08400
H296        H  0.43227685  0.07053741  0.55180898     0.05100
C297        C  0.47283458  0.36677444  0.51231975    -0.20700
C298        C  0.50129772  0.33417908  0.52235978    -0.07200
C299        C  0.01881705  0.33869984  0.54857324     0.13600
C300        C  0.00897661  0.37393484  0.56479430    -0.20700
C301        C  0.48348738  0.40701596  0.55469366    -0.07200
C302        C  0.46494091  0.40408744  0.52768136     0.13600
C303        C  0.43686154  0.43937180  0.51509684    -0.24100
H304        H  0.45599347  0.36267120  0.49291058     0.14900
H305        H  0.02509511  0.37575354  0.58481301     0.14900
C306        C  0.05400992  0.30825242  0.55886106    -0.24000
H307        H  0.42439939  0.43101843  0.49417405     0.05200
H308        H  0.45459307  0.46701850  0.51142925     0.08400
H309        H  0.41018320  0.44771766  0.52990048     0.08400
H310        H  0.06448608  0.28502333  0.54248531     0.08400
H311        H  0.04432724  0.29226782  0.57898675     0.08400
H312        H  0.08157359  0.32521383  0.56319823     0.05100
C313        C  0.11858855  0.24317404  0.22978221    -0.20700
C314        C  0.12397541  0.26831072  0.20556007    -0.07200
C315        C  0.08893409  0.29450641  0.19625264     0.13600
C316        C  0.04978257  0.29394544  0.21104387    -0.20700
C317        C  0.04242300  0.26574371  0.23408683    -0.07200
C318        C  0.07983493  0.24138317  0.24444538     0.13600
C319        C  0.08295517  0.21352035  0.27125464    -0.24100
H320        H  0.14553966  0.22343813  0.23704238     0.14900
H321        H  0.02463604  0.31589540  0.20423085     0.14900
C322        C  0.09256968  0.32399389  0.17099156    -0.24000
H323        H  0.06873060  0.18420815  0.26805090     0.05200
H324        H  0.07013390  0.22966368  0.29057255     0.08400
H325        H  0.11570972  0.20324203  0.27676474     0.08400
H326        H  0.09945319  0.30589356  0.15119051     0.08400
H327        H  0.11783712  0.34440752  0.17447487     0.08400
H328        H  0.06318127  0.34420069  0.16764052     0.05100
C329        C  0.38012194  0.28008058  0.22829038    -0.20700
C330        C  0.38280234  0.27907348  0.19853621    -0.07200
C331        C  0.42257882  0.27273914  0.18499695     0.13600
C332        C  0.45889428  0.26903150  0.20185889    -0.20700
C333        C  0.45687865  0.27302318  0.23227671    -0.07200
C334        C  0.41545453  0.27662535  0.24538906     0.13600
C335        C  0.40610289  0.27755314  0.27739911    -0.24100
H336        H  0.34922834  0.28330568  0.23839473     0.14900
H337        H  0.48869569  0.26256732  0.19092487     0.14900
C338        C  0.42660312  0.26897442  0.15287532    -0.24000
H339        H  0.37212835  0.28223447  0.28252610     0.05200
H340        H  0.41921725  0.30393080  0.28736642     0.08400
H341        H  0.41647333  0.24735506  0.28767880     0.08400
H342        H  0.41192024  0.29772907  0.14234518     0.08400
H343        H  0.41080121  0.24178566  0.14608873     0.08400
H344        H  0.45974698  0.26446760  0.14543909     0.05100
C345        C  0.29548459  0.13640650  0.05415568    -0.20700
C346        C  0.26427014  0.13762203  0.07598805    -0.07200
C347        C  0.23887049  0.10424428  0.07849756     0.13600
C348        C  0.24368360  0.07217254  0.05837055    -0.20700
C349        C  0.27426393  0.07146742  0.03616478    -0.07200
C350        C  0.30183487  0.10309951  0.03504581     0.13600
C351        C  0.33894719  0.10227102  0.01476074    -0.24100
H352        H  0.31538063  0.16171358  0.05199164     0.14900
H353        H  0.22288590  0.04758092  0.05972488     0.14900
C354        C  0.20605233  0.10245703  0.10183910    -0.24000
H355        H  0.36754184  0.10463393  0.02719853     0.05200
H356        H  0.33467287  0.12923228  0.99954700     0.08400
H357        H  0.34391725  0.07307936  0.00249077     0.08400
H358        H  0.18426946  0.13088212  0.10137274     0.08400
H359        H  0.22125898  0.10045110  0.12260127     0.08400
H360        H  0.18791296  0.07497317  0.10006115     0.05100
C361        C  0.23152020  0.42571761  0.04334276    -0.20700
C362        C  0.26676070  0.42088234  0.02481985    -0.07200
C363        C  0.29253924  0.38300553  0.02534882     0.13600
C364        C  0.28320125  0.35178067  0.04533290    -0.20700
C365        C  0.25025272  0.35832298  0.06577163    -0.07200
C366        C  0.22384445  0.39586011  0.06458489     0.13600
C367        C  0.18869546  0.40588123  0.08613298    -0.24100
H368        H  0.21181407  0.45494512  0.04273806     0.14900
H369        H  0.30358586  0.32305675  0.04620068     0.14900
C370        C  0.33107208  0.37595975  0.00636617    -0.24000
H371        H  0.17045274  0.43594981  0.08088355     0.05200
H372        H  0.20126867  0.40871206  0.10789145     0.08400
H373        H  0.16695063  0.38131569  0.08646999     0.08400
H374        H  0.35173570  0.40120434  0.00915759     0.08400
H375        H  0.32246900  0.37458770  0.98360976     0.08400
H376        H  0.34896607  0.34575526  0.01154390     0.05100
C377        C  0.30084225  0.08647440  0.94873998    -0.20700
C378        C  0.26903489  0.08268700  0.96970322    -0.07200
C379        C  0.23111652  0.10816343  0.96754086     0.13600
C380        C  0.22537588  0.13516576  0.94379217    -0.20700
C381        C  0.25554779  0.13573706  0.92147472    -0.07200
C382        C  0.29420455  0.11175530  0.92422520     0.13600
C383        C  0.32724651  0.11013795  0.90054085    -0.24100
H384        H  0.32943557  0.06595716  0.95009583     0.14900
H385        H  0.19659318  0.15531123  0.94244560     0.14900
C386        C  0.19509366  0.10594487  0.98866786    -0.24000
H387        H  0.35391289  0.08688892  0.90544547     0.05200
H388        H  0.33983723  0.14085238  0.89757705     0.08400
H389        H  0.31370610  0.10116794  0.88012461     0.08400
H390        H  0.20131752  0.08217061  0.00585458     0.08400
H391        H  0.16717307  0.09803347  0.97720358     0.08400
H392        H  0.18792682  0.13674417  0.99886135     0.05100
C393        C  0.24023188  0.41089836  0.95780761    -0.20700
C394        C  0.27517188  0.43340407  0.95829542    -0.07200
C395        C  0.30582482  0.42801651  0.93591678     0.13600
C396        C  0.30043450  0.40052097  0.91367184    -0.20700
C397        C  0.26707563  0.37532440  0.91417677    -0.07200
C398        C  0.23608918  0.38153802  0.93638457     0.13600
C399        C  0.19873427  0.35725288  0.93818531    -0.24100
H400        H  0.21621000  0.41614372  0.97444722     0.14900
H401        H  0.32435971  0.39649983  0.89687176     0.14900
C402        C  0.34570403  0.44919677  0.93628988    -0.24000
H403        H  0.17667997  0.36832483  0.95576952     0.05200
H404        H  0.20902475  0.32401854  0.94285544     0.08400
H405        H  0.18173751  0.36061893  0.91769174     0.08400
H406        H  0.36158316  0.44180312  0.95690675     0.08400
H407        H  0.33932940  0.48344183  0.93370639     0.08400
H408        H  0.36765689  0.43850063  0.91856639     0.05100
C409        C  0.49781948  0.12494781  0.72459652    -0.20700
C410        C  0.99845565  0.12696851  0.69428806    -0.07200
C411        C  0.99747905  0.16642273  0.68032916     0.13600
C412        C  0.99736704  0.20332325  0.69662953    -0.20700
C413        C  0.99808282  0.20272954  0.72725648    -0.07200
C414        C  0.49988073  0.16088322  0.74119345     0.13600
C415        C  0.50237223  0.15289195  0.77323981    -0.24100
H416        H  0.49725271  0.09480774  0.73541744     0.14900
H417        H  0.99494449  0.23268783  0.68495289     0.14900
C418        C  0.99533730  0.16962843  0.64808100    -0.24000
H419        H  0.52650439  0.12675807  0.77766094     0.05200
H420        H  0.47180623  0.14418251  0.78181892     0.08400
H421        H  0.51154420  0.17943801  0.78531317     0.08400
H422        H  0.96713162  0.15581739  0.64089519     0.08400
H423        H  0.02347703  0.15252005  0.63822541     0.08400
H424        H  0.99374912  0.20251829  0.64020810     0.05100
C425        C  0.02584006  0.29425889  0.70784887    -0.20700
C426        C  0.49143971  0.28560176  0.72736455    -0.07200
C427        C  0.45881359  0.32008889  0.73002675     0.13600
C428        C  0.46340747  0.35813513  0.71540828    -0.20700
C429        C  0.49751336  0.36468903  0.69767126    -0.07200
C430        C  0.02929303  0.33263776  0.69290786     0.13600
C431        C  0.06607512  0.33800391  0.67302161    -0.24100
H432        H  0.05084240  0.26968792  0.70496815     0.14900
H433        H  0.43907793  0.38372826  0.71719840     0.14900
C434        C  0.41825026  0.32108380  0.74754112    -0.24000
H435        H  0.08787632  0.30920143  0.67214615     0.05200
H436        H  0.08339181  0.36375678  0.68060780     0.08400
H437        H  0.05513994  0.34567458  0.65094131     0.08400
H438        H  0.42298096  0.31336490  0.77045047     0.08400
H439        H  0.39623917  0.30199895  0.73739294     0.08400
H440        H  0.40100197  0.35260039  0.74809263     0.05100
C441        C  0.07489419  0.21701718  0.75296142    -0.20700
C442        C  0.04012938  0.24563306  0.76122337    -0.07200
C443        C  0.05058332  0.27771343  0.78022139     0.13600
C444        C  0.09069384  0.27621118  0.79233999    -0.20700
C445        C  0.12335365  0.24582996  0.78526706    -0.07200
C446        C  0.11505495  0.21648968  0.76463881     0.13600
C447        C  0.14834298  0.18370118  0.75498489    -0.24100
H448        H  0.07187899  0.19448406  0.73656241     0.14900
H449        H  0.09665389  0.29974428  0.80767780     0.14900
C450        C  0.02181457  0.31539357  0.78836572    -0.24000
H451        H  0.13706600  0.16257958  0.73895822     0.05200
H452        H  0.15936020  0.16430517  0.77375000     0.08400
H453        H  0.17441246  0.19929116  0.74478573     0.08400
H454        H  0.01804025  0.31669214  0.81214101     0.08400
H455        H  0.99072428  0.31553840  0.77973035     0.08400
H456        H  0.03533362  0.34409460  0.78039949     0.05100
C457        C  0.45764559  0.24500594  0.79679234    -0.20700
C458        C  0.45675452  0.23922522  0.76656983    -0.07200
C459        C  0.41713584  0.22997300  0.75563668     0.13600
C460        C  0.38115638  0.23311891  0.77358862    -0.20700
C461        C  0.38177720  0.24539353  0.80212320    -0.07200
C462        C  0.42072464  0.24978215  0.81426125     0.13600
C463        C  0.42337584  0.25876794  0.84573151    -0.24100
H464        H  0.48694468  0.24704126  0.80701917     0.14900
H465        H  0.35137870  0.22752326  0.76481055     0.14900
C466        C  0.41001493  0.22034574  0.72450293    -0.24000
H467        H  0.45608965  0.26073132  0.85211974     0.05200
H468        H  0.41033433  0.23357876  0.85879636     0.08400
H469        H  0.40531405  0.28896580  0.85059710     0.08400
H470        H  0.42376441  0.24312563  0.70977419     0.08400
H471        H  0.37634203  0.22207355  0.71959794     0.08400
H472        H  0.42261531  0.18802860  0.71964736     0.05100
C473        C  0.34319992  0.46358706  0.70397473    -0.20700
C474        C  0.37164747  0.49040875  0.71402519    -0.07200
C475        C  0.35423318  0.01760252  0.73642033     0.13600
C476        C  0.31308271  0.01796277  0.74800105    -0.20700
C477        C  0.28546504  0.49198614  0.73680710    -0.07200
C478        C  0.30122469  0.46387117  0.71460504     0.13600
C479        C  0.27622163  0.43213045  0.70165994    -0.24100
H480        H  0.35401955  0.44137173  0.68759211     0.14900
H481        H  0.30715138  0.03746474  0.76640757     0.14900
C482        C  0.38280064  0.04696516  0.74869100    -0.24000
H483        H  0.28991035  0.40024752  0.70754812     0.05200
H484        H  0.26877408  0.93729503  0.68068347     0.08400
H485        H  0.24325155  0.43517659  0.70837627     0.08400
H486        H  0.39479904  0.06706165  0.73127010     0.08400
H487        H  0.41045097  0.53444666  0.75786513     0.08400
H488        H  0.36665278  0.06786042  0.76499013     0.05100
C489        C  0.19443042  0.00413094  0.71203785    -0.20700
C490        C  0.19575352  0.99549799  0.74180394    -0.07200
C491        C  0.15521332  0.99476650  0.75640110     0.13600
C492        C  0.11788815  0.99719074  0.74079870    -0.20700
C493        C  0.11761178  0.00174477  0.71106075    -0.07200
C494        C  0.15680134  0.00671335  0.69660036     0.13600
C495        C  0.16030055  0.52290113  0.66310722    -0.24100
H496        H  0.22545103  0.51138558  0.69778616     0.14900
H497        H  0.08823619  0.99494999  0.75202157     0.14900
C498        C  0.14899823  0.99113527  0.78859560    -0.24000
H499        H  0.19169051  0.53158277  0.65624860     0.05200
H500        H  0.13828997  0.04326719  0.65888572     0.08400
H501        H  0.15304830  0.49714149  0.64919641     0.08400
H502        H  0.16692359  0.96331068  0.79753566     0.08400
H503        H  0.11987977  0.48430353  0.79234616     0.08400
H504        H  0.15623402  0.02013392  0.79877805     0.05100
C505        C  0.22790998  0.07018028  0.82240819    -0.20700
C506        C  0.22976523  0.10703323  0.80606162    -0.07200
C507        C  0.23521726  0.10416111  0.77605017     0.13600
C508        C  0.23334962  0.06588949  0.76312816    -0.20700
C509        C  0.23447795  0.02741136  0.77867538    -0.07200
C510        C  0.23126523  0.03028898  0.80964797     0.13600
C511        C  0.22826941  0.99462315  0.83098360    -0.24100
H512        H  0.22467504  0.07251953  0.84560333     0.14900
H513        H  0.23555753  0.06563426  0.73982713     0.14900
C514        C  0.24578017  0.13990026  0.75651231    -0.24000
H515        H  0.20026196  0.00127831  0.84519047     0.05200
H516        H  0.25613922  0.99164646  0.84466632     0.08400
H517        H  0.22466098  0.96437537  0.82175523     0.08400
H518        H  0.27801416  0.13307294  0.74766855     0.08400
H519        H  0.24410711  0.17027401  0.76721205     0.08400
H520        H  0.22441924  0.14286105  0.73814461     0.05100
C521        C  0.21929026  0.41325097  0.75987988    -0.20700
C522        C  0.24678709  0.44292969  0.76843102    -0.07200
C523        C  0.27989144  0.42697852  0.78681518     0.13600
C524        C  0.27860675  0.38729279  0.79983328    -0.20700
C525        C  0.24856612  0.36076661  0.79288631    -0.07200
C526        C  0.21985743  0.37296408  0.77173510     0.13600
C527        C  0.18911630  0.34383175  0.76212971    -0.24100
H528        H  0.19653276  0.42062410  0.74355124     0.14900
H529        H  0.30205712  0.37620327  0.81519210     0.14900
C530        C  0.31704573  0.45012026  0.79334515    -0.24000
H531        H  0.16825198  0.35842001  0.74537235     0.05200
H532        H  0.16936014  0.33485114  0.78073412     0.08400
H533        H  0.20613154  0.31534781  0.75299359     0.08400
H534        H  0.30775376  0.48241111  0.79996697     0.08400
H535        H  0.33841082  0.44974212  0.77429433     0.08400
H536        H  0.33551896  0.43486487  0.81111634     0.05100
C537        C  0.08212746  0.26882761  0.04839872    -0.20700
C538        C  0.07299121  0.23118622  0.03664597    -0.07200
C539        C  0.09343582  0.19331824  0.04672781     0.13600
C540        C  0.12137223  0.19409844  0.06914498    -0.20700
C541        C  0.13121511  0.23181008  0.08067156    -0.07200
C542        C  0.11231864  0.26977889  0.06935144     0.13600
C543        C  0.12314051  0.31130546  0.07949749    -0.24100
H544        H  0.06458651  0.29759862  0.04188629     0.14900
H545        H  0.13597415  0.16482918  0.07719814     0.14900
C546        C  0.08580466  0.15167637  0.03470327    -0.24000
H547        H  0.10370196  0.33764341  0.06935137     0.05200
H548        H  0.15614908  0.31496439  0.07353297     0.08400
H549        H  0.11846827  0.31330332  0.10310572     0.08400
H550        H  0.06400601  0.15446901  0.01658203     0.08400
H551        H  0.07269087  0.13194313  0.05189263     0.08400
H552        H  0.11579187  0.13575337  0.02663184     0.05100
C553        C  0.41260990  0.20409610  0.05773665    -0.20700
C554        C  0.42447833  0.23795903  0.04110017    -0.07200
C555        C  0.41127062  0.27892385  0.04969440     0.13600
C556        C  0.38335705  0.28497703  0.07305491    -0.20700
C557        C  0.36990742  0.25109543  0.08914981    -0.07200
C558        C  0.38622381  0.20999453  0.08203181     0.13600
C559        C  0.37823516  0.17230533  0.10051886    -0.24100
H560        H  0.42612062  0.17296651  0.05259453     0.14900
H561        H  0.37207210  0.31658846  0.07870651     0.14900
C562        C  0.42855425  0.31629042  0.03537877    -0.24000
H563        H  0.39704987  0.14373569  0.09301426     0.05200
H564        H  0.34514776  0.16587795  0.09989941     0.08400
H565        H  0.38674300  0.17747403  0.12303817     0.08400
H566        H  0.42122602  0.31752001  0.01229079     0.08400
H567        H  0.46291114  0.31419332  0.03763743     0.08400
H568        H  0.41519476  0.34599586  0.04506236     0.05100
C569        C  0.08570296  0.20852080  0.95337193    -0.20700
C570        C  0.07368758  0.24143692  0.97181174    -0.07200
C571        C  0.09251743  0.27917812  0.96857449     0.13600
C572        C  0.12610839  0.28108024  0.94908105    -0.20700
C573        C  0.13827110  0.24816819  0.93065847    -0.07200
C574        C  0.11553393  0.21261006  0.93148276     0.13600
C575        C  0.11880235  0.18021931  0.90846304    -0.24100
H576        H  0.06887658  0.18081269  0.95443095     0.14900
H577        H  0.14061132  0.30969981  0.94685177     0.14900
C578        C  0.07613497  0.31872840  0.98342007    -0.24000
H579        H  0.08708210  0.17567870  0.90102646     0.05200
H580        H  0.13309809  0.15001701  0.91713141     0.08400
H581        H  0.13625865  0.18979674  0.88913393     0.08400
H582        H  0.10010893  0.32851450  0.99790617     0.08400
H583        H  0.04685679  0.31546728  0.99592849     0.08400
H584        H  0.06908188  0.34384369  0.96706669     0.05100
C585        C  0.41235775  0.27438818  0.95957045    -0.20700
C586        C  0.42170845  0.23650131  0.97433906    -0.07200
C587        C  0.40147159  0.20138370  0.96685734     0.13600
C588        C  0.37042122  0.20572676  0.94600516    -0.20700
C589        C  0.36093516  0.24388439  0.93139467    -0.07200
C590        C  0.38225556  0.27848558  0.93836317     0.13600
C591        C  0.37180247  0.32040168  0.92454495    -0.24100
H592        H  0.42969413  0.30066635  0.96407202     0.14900
H593        H  0.35342368  0.17936322  0.94117597     0.14900
C594        C  0.41396624  0.15914302  0.97997119    -0.24000
H595        H  0.39148833  0.34422484  0.93223891     0.05200
H596        H  0.33908392  0.33042590  0.93046598     0.08400
H597        H  0.37592768  0.31838657  0.90084621     0.08400
H598        H  0.40758048  0.15984905  0.00347384     0.08400
H599        H  0.44775344  0.15051868  0.97588196     0.08400
H600        H  0.39669838  0.13461404  0.97063828     0.05100
C601        C  0.38006931  0.52131243  0.27017286    -0.20700
C602        C  0.37972423  0.52408114  0.30016474    -0.07200
C603        C  0.34027884  0.52622442  0.31481379     0.13600
C604        C  0.30352819  0.52284390  0.29929066    -0.20700
C605        C  0.30398605  0.51582208  0.26929139    -0.07200
C606        C  0.34364942  0.51837386  0.25455258     0.13600
C607        C  0.34948201  0.51760687  0.22216336    -0.24100
H608        H  0.40964974  0.52137343  0.25851470     0.14900
H609        H  0.27427687  0.52616638  0.31113124     0.14900
C610        C  0.33604234  0.53183763  0.34688502    -0.24000
H611        H  0.38292923  0.51361943  0.21541011     0.05200
H612        H  0.33931952  0.04439445  0.21309540     0.08400
H613        H  0.33502455  0.49128915  0.21305457     0.08400
H614        H  0.35366356  0.06525100  0.35284428     0.08400
H615        H  0.35237880  0.50469028  0.35821048     0.08400
H616        H  0.30295402  0.53412792  0.35452382     0.05100
C617        C  0.17186309  0.00277515  0.31215995    -0.20700
C618        C  0.14149669  0.03345445  0.30244696    -0.07200
C619        C  0.15029161  0.05678023  0.27773209     0.13600
C620        C  0.18915212  0.04944902  0.26364917    -0.20700
C621        C  0.22225722  0.02003356  0.27351635    -0.07200
C622        C  0.20841397  0.49271412  0.29592120     0.13600
C623        C  0.23502900  0.45529995  0.30697028    -0.24100
H624        H  0.16095969  0.48000992  0.32790055     0.14900
H625        H  0.19133109  0.06574700  0.24330664     0.14900
C626        C  0.11719091  0.08703971  0.26450778    -0.24000
H627        H  0.21876265  0.42677527  0.30423808     0.05200
H628        H  0.24446667  0.96484026  0.33339826     0.08400
H629        H  0.26527944  0.45083738  0.29590971     0.08400
H630        H  0.10638802  0.11157851  0.28008912     0.08400
H631        H  0.08882294  0.57752985  0.26057476     0.08400
H632        H  0.12873057  0.10277095  0.24478737     0.05100
C633        C  0.24598429  0.09056942  0.18776265    -0.20700
C634        C  0.24463754  0.12868011  0.20186996    -0.07200
C635        C  0.25548085  0.12825622  0.23090435     0.13600
C636        C  0.26468607  0.09011513  0.24538036    -0.20700
C637        C  0.26359359  0.05057020  0.23222559    -0.07200
C638        C  0.25692226  0.05173687  0.20178642     0.13600
C639        C  0.26399795  0.01524255  0.18185070    -0.24100
H640        H  0.24129769  0.09120347  0.16515973     0.14900
H641        H  0.26992318  0.09129830  0.26821092     0.14900
C642        C  0.25598708  0.16823767  0.24723160    -0.24000
H643        H  0.28435005  0.02371318  0.16339990     0.05200
H644        H  0.23378423  0.00777331  0.17329684     0.08400
H645        H  0.28044826  0.98708545  0.19129413     0.08400
H646        H  0.22503930  0.18644413  0.24608601     0.08400
H647        H  0.28032272  0.18715778  0.23799480     0.08400
H648        H  0.26296318  0.16226596  0.27027426     0.05100
C649        C  0.28321628  0.39081057  0.23058910    -0.20700
C650        C  0.24743914  0.38548854  0.21529790    -0.07200
C651        C  0.21680941  0.41966721  0.21337611     0.13600
C652        C  0.22371555  0.45840907  0.22538518    -0.20700
C653        C  0.26095472  0.46581552  0.23948078    -0.07200
C654        C  0.29084674  0.42920871  0.24295717     0.13600
C655        C  0.33163331  0.42682745  0.25892262    -0.24100
H656        H  0.30670266  0.36444127  0.23184838     0.14900
H657        H  0.19957727  0.48391632  0.22312621     0.14900
C658        C  0.17595052  0.41509593  0.19931396    -0.24000
H659        H  0.34427509  0.39403862  0.26315162     0.05200
H660        H  0.32868272  0.44042831  0.28049930     0.08400
H661        H  0.35625090  0.44014286  0.24570644     0.08400
H662        H  0.16064361  0.38910854  0.20992143     0.08400
H663        H  0.18114580  0.40860365  0.17612255     0.08400
H664        H  0.15426221  0.44387629  0.20111330     0.05100
C665        C  0.26223444  0.51125602  0.25266280    -0.02800
C666        C  0.46493941  0.72861806  0.02187533     0.01900
C667        C  0.46411223  0.73068611  0.99146043     0.01900
C668        C  0.00232459  0.72836595  0.97551136    -0.18600
C669        C  0.03928787  0.72795250  0.99060924     0.01900
C670        C  0.03800224  0.72607903  0.02080468     0.01900
C671        C  0.99969225  0.72684735  0.03528068    -0.18600
H672        H  0.99874780  0.72711535  0.05863274     0.03900
H673        H  0.00356384  0.72930290  0.95217600     0.03900
C674        C  0.24222941  0.48859584  0.75523218    -0.02800
C675        C  0.99976467  0.74329285  0.74618736    -0.02800
C676        C  0.27065879  0.96759479  0.97901635     0.01900
C677        C  0.27303952  0.96124245  0.00909045     0.01900
C678        C  0.28392063  0.49329540  0.02805263    -0.18600
C679        C  0.28309432  0.53443494  0.01730352     0.01900
C680        C  0.27889862  0.54071903  0.98723798     0.01900
C681        C  0.27601405  0.50676901  0.96945506    -0.18600
H682        H  0.27174172  0.51231014  0.94655249     0.03900
H683        H  0.28550481  0.48784600  0.05110217     0.03900
O684        O  0.32756893  0.74984251  0.88743090    -0.80500
O685        O  0.20044871  0.66171185  0.83111385    -0.80500
O686        O  0.28080060  0.68364793  0.89035651    -0.80500
O687        O  0.32200281  0.71850629  0.81909151    -0.81300
O688        O  0.21610898  0.66788728  0.88887229    -0.80600
O689        O  0.32877338  0.78199267  0.83159891    -0.80500
O690        O  0.26564419  0.66484904  0.81743229    -0.80500
O691        O  0.29105842  0.74599705  0.92758463    -0.80500
C692        C  0.32609060  0.74586057  0.91519130     1.09200
C693        C  0.23375633  0.64541231  0.81925323     1.09100
C694        C  0.25328453  0.66018830  0.89764923     1.09200
C695        C  0.34384116  0.74878217  0.81948600     1.09100
O696        O  0.24451710  0.81913380  0.83790171    -0.80500
O697        O  0.17010411  0.75203044  0.88653230    -0.80600
O698        O  0.24543269  0.80615157  0.89815072    -0.80500
O699        O  0.20229339  0.72743403  0.79369984    -0.80500
O700        O  0.16128319  0.74607996  0.83054849    -0.80500
O701        O  0.30072506  0.83082417  0.87828660    -0.80500
O702        O  0.26202729  0.78598445  0.79758436    -0.80500
O703        O  0.21443520  0.73220615  0.91871018    -0.80500
Co704      Co  0.28185402  0.78260225  0.86180901     1.51500
Co705      Co  0.19059450  0.70915966  0.85895433     1.51700
Co706      Co  0.26303600  0.74298595  0.89242625     1.51600
Co707      Co  0.26217900  0.72509944  0.80967985     1.51500
O708        O  0.24511037  0.73675940  0.85155129    -1.42400
C709        C  0.25035653  0.81936305  0.81102638     1.09100
C710        C  0.17732125  0.74254464  0.91213920     1.09200
C711        C  0.27066220  0.83512245  0.89650891     1.09100
C712        C  0.16594328  0.73976556  0.80404271     1.09100
O713        O  0.32687785  0.81443768  0.17245059    -0.80500
O714        O  0.24832182  0.67922570  0.12054579    -0.80500
O715        O  0.27050651  0.69219850  0.18590169    -0.80500
O716        O  0.31664579  0.73143408  0.11848825    -0.80500
O717        O  0.20738435  0.68468112  0.17381455    -0.80600
O718        O  0.32487948  0.79807868  0.11548187    -0.80500
O719        O  0.26158631  0.70962548  0.07927982    -0.80500
O720        O  0.32433490  0.74943559  0.18726972    -0.80500
C721        C  0.34413730  0.78117630  0.18386619     1.09200
C722        C  0.25830679  0.67632216  0.09336372     1.09100
C723        C  0.24034753  0.67025091  0.18594725     1.09200
C724        C  0.33793554  0.76029674  0.11006489     1.09100
O725        O  0.23863670  0.83773239  0.11395606    -0.80500
O726        O  0.16917152  0.76652971  0.16257248    -0.80600
O727        O  0.26107261  0.81263487  0.20865233    -0.80500
O728        O  0.19481089  0.75480086  0.10168479    -0.80500
O729        O  0.16615863  0.70319305  0.12405914    -0.80500
O730        O  0.24090269  0.85171470  0.17148502    -0.80500
O731        O  0.26475728  0.79018921  0.08493225    -0.80500
O732        O  0.20074960  0.75458991  0.20406454    -0.80500
Co733      Co  0.28024039  0.82215674  0.14372398     1.51500
Co734      Co  0.21025228  0.72754002  0.14180356     1.51700
Co735      Co  0.26336079  0.75260722  0.19390182     1.51600
Co736      Co  0.25691392  0.74282932  0.11247824     1.51500
O737        O  0.25398433  0.76692393  0.15188010    -1.42400
C738        C  0.24907868  0.82705467  0.08877166     1.09100
C739        C  0.16748590  0.76488785  0.18983796     1.09200
C740        C  0.24829253  0.84837885  0.19795993     1.09100
C741        C  0.16636877  0.72914149  0.10324683     1.09100
O742        O  0.08223424  0.49049351  0.66755319    -0.80500
O743        O  0.48529176  0.93389208  0.60151359    -0.80500
O744        O  0.00118987  0.93912259  0.69399637    -0.80500
O745        O  0.03178364  0.99573843  0.58213048    -0.80500
O746        O  0.47934111  0.90655819  0.65654168    -0.80600
O747        O  0.07981327  0.48591207  0.61094097    -0.80500
O748        O  0.95883731  0.97668127  0.56837889    -0.80500
O749        O  0.04003471  0.00950009  0.70623159    -0.80500
C750        C  0.07948995  0.50043072  0.69345317     1.09200
C751        C  0.47463140  0.94156733  0.57516060     1.09100
C752        C  0.49476421  0.90546103  0.68102084     1.09200
C753        C  0.06796547  0.48912928  0.58558012     1.09100
O754        O  0.03302199  0.56785936  0.60801976    -0.80500
O755        O  0.41843808  0.97570686  0.67443461    -0.80600
O756        O  0.47421281  0.56177636  0.68016965    -0.80500
O757        O  0.41550969  0.50044872  0.61823551    -0.80500
O758        O  0.40852999  0.93287200  0.62495257    -0.80500
O759        O  0.03853358  0.57363312  0.66632521    -0.80500
O760        O  0.46843086  0.55620381  0.59818335    -0.80500
O761        O  0.44651845  0.49967261  0.71518966    -0.80500
Co762      Co  0.05537157  0.52723240  0.63840213     1.51500
Co763      Co  0.45649602  0.95817997  0.63785463     1.51700
Co764      Co  0.98722001  0.50081672  0.68456687     1.51600
Co765      Co  0.97628052  0.49799190  0.60450993     1.51500
O766        O  0.00359888  0.49676432  0.64400208    -1.42400
C767        C  0.99827820  0.57965735  0.59646163     1.09100
C768        C  0.41226779  0.98834507  0.70081096     1.09200
C769        C  0.00402754  0.58623905  0.67868471     1.09100
C770        C  0.39411647  0.96718557  0.61339590     1.09100
O771        O  0.98902838  0.59893574  0.33086206    -0.80500
O772        O  0.42092666  0.96036730  0.38289091    -0.80500
O773        O  0.45471319  0.51049346  0.29997319    -0.80500
O774        O  0.02202523  0.53972744  0.41528824    -0.80500
O775        O  0.42598996  0.02398519  0.34294211    -0.80600
O776        O  0.99154168  0.58586658  0.38687871    -0.80500
O777        O  0.45446045  0.50472074  0.40549345    -0.80500
O778        O  0.51323430  0.56970192  0.29280716    -0.80500
C779        C  0.99752209  0.60092121  0.30454725     1.09200
C780        C  0.42538567  0.98056732  0.40553664     1.09100
C781        C  0.42414070  0.02080782  0.31587965     1.09200
C782        C  0.00319586  0.57540093  0.41162510     1.09100
O783        O  0.07983125  0.55210181  0.38142761    -0.80500
O784        O  0.46321860  0.94214210  0.33173497    -0.80600
O785        O  0.07959830  0.00252977  0.31240175    -0.80500
O786        O  0.02466762  0.95932664  0.42231041    -0.80500
O787        O  0.50280039  0.93422887  0.38291324    -0.80500
O788        O  0.07794901  0.56801174  0.32413303    -0.80500
O789        O  0.07737090  0.98572564  0.38063030    -0.80500
O790        O  0.02653274  0.94471800  0.31685633    -0.80500
Co791      Co  0.03244989  0.57360398  0.35547773     1.51500
Co792      Co  0.46573820  0.98390087  0.36320187     1.51700
Co793      Co  0.01906908  0.00530553  0.30780735     1.51600
Co794      Co  0.01731857  0.99339875  0.38957087     1.51500
O795        O  0.01074171  0.01812724  0.35018015    -1.42400
C796        C  0.09539526  0.51507857  0.38745105     1.09100
C797        C  0.49597124  0.92666570  0.31882867     1.09200
C798        C  0.09648178  0.53457612  0.31391691     1.09100
C799        C  0.51693812  0.92849030  0.40865832     1.09100
C800        C  0.50546188  0.79220636  0.50978825     0.01900
C801        C  0.51723437  0.78411109  0.48082476     0.01900
C802        C  0.51947667  0.74338805  0.47091676    -0.18600
C803        C  0.51045356  0.71039336  0.48918883     0.01900
C804        C  0.50098539  0.71803776  0.51827507     0.01900
C805        C  0.49706795  0.75876382  0.52808926    -0.18600
H806        H  0.48859180  0.76425998  0.55050897     0.03900
H807        H  0.52661737  0.73747953  0.44834768     0.03900
C808        C  0.28166164  0.48480088  0.51859581     0.01900
C809        C  0.29061817  0.48332458  0.48855015     0.01900
C810        C  0.25689390  0.99199033  0.46949707    -0.18600
C811        C  0.21606868  0.49696509  0.47863223     0.01900
C812        C  0.20706796  0.49782724  0.50850998     0.01900
C813        C  0.23988878  0.49177089  0.52784843    -0.18600
H814        H  0.23261489  0.49175520  0.55077287     0.03900
H815        H  0.26318991  0.99582388  0.44659188     0.03900
C816        C  0.99973018  0.76999386  0.25060885    -0.02800
C817        C  0.46803794  0.88473218  0.28170507    -0.20700
C818        C  0.49708930  0.88696904  0.30303189    -0.07200
C819        C  0.02983019  0.85221539  0.30539342     0.13600
C820        C  0.03080709  0.81738600  0.28734475    -0.20700
C821        C  0.49946780  0.81517640  0.26698079    -0.07200
C822        C  0.47173024  0.85251499  0.26164528     0.13600
C823        C  0.44975312  0.86450798  0.23389581    -0.24100
H824        H  0.44509268  0.91124033  0.27846866     0.14900
H825        H  0.05609633  0.79348812  0.28949861     0.14900
C826        C  0.06371625  0.85433524  0.32689183    -0.24000
H827        H  0.45385037  0.89757049  0.22808865     0.05200
H828        H  0.41575806  0.86194071  0.23654828     0.08400
H829        H  0.96337398  0.84498354  0.21501635     0.08400
H830        H  0.55091150  0.86047223  0.34809012     0.08400
H831        H  0.08145824  0.88163282  0.32195632     0.08400
H832        H  0.08617065  0.82598902  0.32650386     0.05100
C833        C  0.49534547  0.69402425  0.24978438    -0.20700
C834        C  0.99554689  0.72758333  0.26772257    -0.07200
C835        C  0.99300406  0.71976332  0.29824085     0.13600
C836        C  0.99314941  0.67828114  0.30866945    -0.20700
C837        C  0.99395334  0.64355772  0.29062548    -0.07200
C838        C  0.49442051  0.65286906  0.26065289     0.13600
C839        C  0.49422736  0.61766970  0.23986618    -0.24100
H840        H  0.49755055  0.69820170  0.22666935     0.14900
H841        H  0.99371737  0.67292921  0.33174745     0.14900
C842        C  0.99166339  0.75230479  0.32124269    -0.24000
H843        H  0.49290741  0.62919966  0.21721428     0.05200
H844        H  0.46654200  0.60024275  0.24435464     0.08400
H845        H  0.01857861  0.59414219  0.24088271     0.08400
H846        H  0.47228017  0.78312692  0.31559414     0.08400
H847        H  0.02373079  0.75831415  0.32685576     0.08400
H848        H  0.97657811  0.74121805  0.34138017     0.05100
C849        C  0.03143683  0.60205368  0.45535724    -0.20700
C850        C  0.00022903  0.60604496  0.43472616    -0.07200
C851        C  0.46782065  0.64246123  0.43608329     0.13600
C852        C  0.47009373  0.67266022  0.45686756    -0.20700
C853        C  0.00700198  0.66964167  0.47425686    -0.07200
C854        C  0.03623047  0.63414918  0.47441740     0.13600
C855        C  0.07371298  0.63047524  0.49316100    -0.24100
H856        H  0.05427946  0.57509599  0.45512642     0.14900
H857        H  0.44782344  0.70011034  0.45672998     0.14900
C858        C  0.43457146  0.64972683  0.41377219    -0.24000
H859        H  0.09567102  0.60307573  0.48753910     0.05200
H860        H  0.06373107  0.62525840  0.51566031     0.08400
H861        H  0.09073822  0.65882521  0.49092171     0.08400
H862        H  0.41630792  0.62236228  0.41264520     0.08400
H863        H  0.44907550  0.65591067  0.39239165     0.08400
H864        H  0.41237088  0.67727877  0.41876223     0.05100
C865        C  0.05121106  0.88129484  0.44457850    -0.20700
C866        C  0.52253142  0.88691338  0.42236048    -0.07200
C867        C  0.49523069  0.85594673  0.41763584     0.13600
C868        C  0.49560980  0.82180067  0.43662121    -0.20700
C869        C  0.52307948  0.81744687  0.45956271    -0.07200
C870        C  0.05403365  0.84571455  0.46215921     0.13600
C871        C  0.08924367  0.83962048  0.48288901    -0.24100
H872        H  0.07192152  0.90508109  0.44839490     0.14900
H873        H  0.47290210  0.79929613  0.43443555     0.14900
C874        C  0.46358281  0.85967356  0.39424900    -0.24000
H875        H  0.11935452  0.84174173  0.47100234     0.05200
H876        H  0.09091914  0.80854530  0.49361854     0.08400
H877        H  0.08558354  0.86424236  0.49934582     0.08400
H878        H  0.47939311  0.86229301  0.37289663     0.08400
H879        H  0.44112913  0.88722428  0.39800295     0.08400
H880        H  0.44541067  0.83203620  0.39387112     0.05100
C881        C  0.16861219  0.96623054  0.44551980    -0.20700
C882        C  0.18405255  0.50216954  0.45604383    -0.07200
C883        C  0.17064636  0.54175321  0.44422731     0.13600
C884        C  0.14356357  0.54466926  0.42097610    -0.20700
C885        C  0.13074215  0.50901069  0.40794955    -0.07200
C886        C  0.14822613  0.46923248  0.41777901     0.13600
C887        C  0.13685716  0.92891905  0.40629275    -0.24100
H888        H  0.17818633  0.93589104  0.45497344     0.14900
H889        H  0.13204749  0.57547178  0.41324649     0.14900
C890        C  0.18559138  0.58154268  0.45479337    -0.24000
H891        H  0.15236466  0.90116779  0.41756104     0.05200
H892        H  0.14934071  0.92919586  0.38382120     0.08400
H893        H  0.10895558  0.42295042  0.40373166     0.08400
H894        H  0.21465813  0.08919707  0.43280839     0.08400
H895        H  0.20689219  0.57643313  0.47307553     0.08400
H896        H  0.15857838  0.60326796  0.46160011     0.05100
C897        C  0.36112250  0.50456543  0.47589715    -0.20700
C898        C  0.33174763  0.97357363  0.47350692    -0.07200
C899        C  0.33661019  0.94391311  0.45135878     0.13600
C900        C  0.36706029  0.94748837  0.42973898    -0.20700
C901        C  0.39527750  0.97805940  0.43047484    -0.07200
C902        C  0.39279195  0.50678355  0.45452222     0.13600
C903        C  0.42289287  0.53935039  0.45729378    -0.24100
H904        H  0.35686561  0.52812240  0.49227511     0.14900
H905        H  0.36852071  0.92592650  0.41208512     0.14900
C906        C  0.30888244  0.90890607  0.44940813    -0.24000
H907        H  0.41651001  0.55800597  0.47700262     0.05200
H908        H  0.42780473  0.05546437  0.44319932     0.08400
H909        H  0.45518911  0.52414165  0.45854877     0.08400
H910        H  0.29048068  0.91290254  0.42954107     0.08400
H911        H  0.28708972  0.90733914  0.46818613     0.08400
H912        H  0.32848110  0.87866933  0.44864556     0.05100
C913        C  0.11795445  0.52981601  0.55942265    -0.20700
C914        C  0.09914782  0.49238629  0.56203816    -0.07200
C915        C  0.11121414  0.45986926  0.54288130     0.13600
C916        C  0.15472379  0.94830505  0.53379218    -0.20700
C917        C  0.16452458  0.50086946  0.52143606    -0.07200
C918        C  0.15056997  0.53448159  0.53943425     0.13600
C919        C  0.17095347  0.57477610  0.53838260    -0.24100
H920        H  0.10793820  0.55508524  0.57378733     0.14900
H921        H  0.17376391  0.92004288  0.52788420     0.14900
C922        C  0.11866509  0.90454074  0.56960505    -0.24000
H923        H  0.15623031  0.59742528  0.55414484     0.05200
H924        H  0.14556239  0.06977215  0.49771705     0.08400
H925        H  0.20449275  0.56913592  0.54338867     0.08400
H926        H  0.10888058  0.88293788  0.55335858     0.08400
H927        H  0.09292300  0.40601474  0.56615684     0.08400
H928        H  0.14884458  0.89136997  0.57848433     0.05100
C929        C  0.31412451  0.00940425  0.55930431    -0.20700
C930        C  0.31392799  0.97560300  0.54068170    -0.07200
C931        C  0.33599074  0.93722512  0.54841917     0.13600
C932        C  0.35972258  0.93445230  0.57353654    -0.20700
C933        C  0.36085892  0.96877725  0.59171854    -0.07200
C934        C  0.33613783  0.00612768  0.58500820     0.13600
C935        C  0.33047866  0.04240121  0.60512990    -0.24100
H936        H  0.29500915  0.03808779  0.55445355     0.14900
H937        H  0.37873607  0.90571993  0.57836157     0.14900
C938        C  0.32788672  0.40234910  0.53359629    -0.24000
H939        H  0.29666743  0.05043211  0.60959497     0.05200
H940        H  0.34374874  0.06986825  0.59499768     0.08400
H941        H  0.32552966  0.53921532  0.62625025     0.08400
H942        H  0.30158646  0.89190285  0.52845834     0.08400
H943        H  0.34334547  0.37398025  0.54415947     0.08400
H944        H  0.34274871  0.40554208  0.51202870     0.05100
C945        C  0.03145911  0.63950265  0.57592756    -0.20700
C946        C  0.99545712  0.61812268  0.57856937    -0.07200
C947        C  0.46235404  0.62651074  0.55851193     0.13600
C948        C  0.46454347  0.66071667  0.53970982    -0.20700
C949        C  0.00026300  0.68321588  0.53827781    -0.07200
C950        C  0.03420509  0.67211319  0.55623593     0.13600
C951        C  0.07483987  0.69204376  0.55404520    -0.24100
H952        H  0.05858880  0.62997901  0.58859067     0.14900
H953        H  0.43991349  0.66872953  0.52455892     0.14900
C954        C  0.42547012  0.60124590  0.55634987    -0.24000
H955        H  0.10090817  0.66783570  0.54945959     0.05200
H956        H  0.08056690  0.70656682  0.57481491     0.08400
H957        H  0.07549366  0.71620853  0.53679376     0.08400
H958        H  0.40352022  0.61403256  0.53966167     0.08400
H959        H  0.90767736  0.61772515  0.58865758     0.08400
H960        H  0.43609245  0.56870020  0.55038615     0.05100
C961        C  0.47626008  0.86738046  0.51177630    -0.20700
C962        C  0.50327457  0.83413203  0.52261900    -0.07200
C963        C  0.02654759  0.83864908  0.54748922     0.13600
C964        C  0.01781360  0.87526575  0.56264862    -0.20700
C965        C  0.48538494  0.90747846  0.55454191    -0.07200
C966        C  0.46852160  0.90496217  0.52691833     0.13600
C967        C  0.44230588  0.94093957  0.51349577    -0.24100
H968        H  0.46050616  0.86364701  0.49184141     0.14900
H969        H  0.03373019  0.87809682  0.58259175     0.14900
C970        C  0.05963758  0.80649829  0.55890069    -0.24000
H971        H  0.43152885  0.93304605  0.49197950     0.05200
H972        H  0.46096783  0.96809549  0.51079137     0.08400
H973        H  0.41448332  0.94977124  0.52723744     0.08400
H974        H  0.08244672  0.79641919  0.54164839     0.08400
H975        H  0.04540594  0.77913057  0.56816475     0.08400
H976        H  0.07733025  0.81902977  0.57640601     0.05100
C977        C  0.12024406  0.74303279  0.22918569    -0.20700
C978        C  0.12550080  0.76893009  0.20528519    -0.07200
C979        C  0.09036166  0.79512363  0.19625208     0.13600
C980        C  0.05143864  0.79420893  0.21116251    -0.20700
C981        C  0.04428183  0.76576621  0.23408808    -0.07200
C982        C  0.08154816  0.74071896  0.24385550     0.13600
C983        C  0.08436256  0.71140064  0.26990073    -0.24100
H984        H  0.14723966  0.72308738  0.23613795     0.14900
H985        H  0.02618835  0.81619694  0.20447985     0.14900
C986        C  0.09365698  0.82488005  0.17113990    -0.24000
H987        H  0.06905122  0.68291255  0.26600600     0.05200
H988        H  0.07232827  0.72683461  0.28970846     0.08400
H989        H  0.11699689  0.69975575  0.27484311     0.08400
H990        H  0.10047260  0.80689889  0.15131647     0.08400
H991        H  0.11884188  0.84538412  0.17460376     0.08400
H992        H  0.06413888  0.84496770  0.16793403     0.05100
C993        C  0.38226118  0.78183305  0.22825893    -0.20700
C994        C  0.38461854  0.78082676  0.19850307    -0.07200
C995        C  0.42421772  0.77475333  0.18473790     0.13600
C996        C  0.46073644  0.77051733  0.20139152    -0.20700
C997        C  0.45911844  0.77420961  0.23183540    -0.07200
C998        C  0.41780066  0.77826006  0.24516609     0.13600
C999        C  0.40866477  0.77934435  0.27721460    -0.24100
H1000       H  0.35148568  0.78511990  0.23850047     0.14900
H1001       H  0.49036410  0.76399670  0.19027305     0.14900
C1002       C  0.42782497  0.77191349  0.15255742    -0.24000
H1003       H  0.37474868  0.78450056  0.28244801     0.05200
H1004       H  0.42214587  0.80545390  0.28721979     0.08400
H1005       H  0.41865068  0.74904093  0.28746261     0.08400
H1006       H  0.41295764  0.80094372  0.14247817     0.08400
H1007       H  0.41195696  0.74493281  0.14552672     0.08400
H1008       H  0.46086884  0.76765342  0.14489058     0.05100
C1009       C  0.29975006  0.63493692  0.05654422    -0.20700
C1010       C  0.26791604  0.63616881  0.07798597    -0.07200
C1011       C  0.24321719  0.60198353  0.08047736     0.13600
C1012       C  0.24964002  0.56945405  0.06061981    -0.20700
C1013       C  0.28038275  0.56922425  0.03847037    -0.07200
C1014       C  0.30713189  0.60156395  0.03754763     0.13600
C1015       C  0.34444571  0.60158290  0.01751406    -0.24100
H1016       H  0.31926829  0.66058014  0.05444295     0.14900
H1017       H  0.22933801  0.54441721  0.06195211     0.14900
C1018       C  0.20852355  0.59884684  0.10256108    -0.24000
H1019       H  0.37267974  0.60499575  0.03010729     0.05200
H1020       H  0.33959114  0.62832429  0.00216435     0.08400
H1021       H  0.35048048  0.57228050  0.00547059     0.08400
H1022       H  0.20364094  0.62574905  0.11688749     0.08400
H1023       H  0.21550209  0.57041122  0.11614067     0.08400
H1024       H  0.17881260  0.59604690  0.09153793     0.05100
C1025       C  0.22815969  0.92559822  0.04297201    -0.20700
C1026       C  0.26311140  0.92222192  0.02415866    -0.07200
C1027       C  0.29041251  0.88531014  0.02456992     0.13600
C1028       C  0.28231133  0.85323865  0.04426935    -0.20700
C1029       C  0.24969127  0.85842893  0.06504162    -0.07200
C1030       C  0.22211747  0.89528653  0.06426736     0.13600
C1031       C  0.18757335  0.90435226  0.08642914    -0.24100
H1032       H  0.20742552  0.95416207  0.04260485     0.14900
H1033       H  0.30370523  0.82519716  0.04490680     0.14900
C1034       C  0.32963645  0.88051534  0.00610830    -0.24000
H1035       H  0.16824998  0.93389355  0.08144208     0.05200
H1036       H  0.20085586  0.90776453  0.10790418     0.08400
H1037       H  0.16665739  0.87906966  0.08730839     0.08400
H1038       H  0.34865193  0.90694782  0.00941998     0.08400
H1039       H  0.32195937  0.87893369  0.98320609     0.08400
H1040       H  0.34895974  0.85117028  0.01139186     0.05100
C1041       C  0.30860583  0.58621708  0.95154036    -0.20700
C1042       C  0.27607783  0.58101497  0.97172394    -0.07200
C1043       C  0.23685436  0.60346390  0.96790414     0.13600
C1044       C  0.23067907  0.62885138  0.94341286    -0.20700
C1045       C  0.26192503  0.63099588  0.92194331    -0.07200
C1046       C  0.30185249  0.61014382  0.92637374     0.13600
C1047       C  0.33655161  0.61041989  0.90391582    -0.24100
H1048       H  0.33816552  0.56758330  0.95397029     0.14900
H1049       H  0.20090955  0.64692240  0.94104085     0.14900
C1050       C  0.20005978  0.59932424  0.98810981    -0.24000
H1051       H  0.36445847  0.58968737  0.91022594     0.05200
H1052       H  0.34659468  0.64220853  0.90076543     0.08400
H1053       H  0.32574085  0.59931883  0.88321722     0.08400
H1054       H  0.20736914  0.57777161  0.00646676     0.08400
H1055       H  0.17428280  0.58744038  0.97625928     0.08400
H1056       H  0.18915765  0.63039235  0.99682386     0.05100
C1057       C  0.23705183  0.90905131  0.95825429    -0.20700
C1058       C  0.27022504  0.93398549  0.95782612    -0.07200
C1059       C  0.30149390  0.92863550  0.93587437     0.13600
C1060       C  0.29857411  0.89844147  0.91500887    -0.20700
C1061       C  0.26663222  0.87149905  0.91618367    -0.07200
C1062       C  0.23518503  0.87748362  0.93809259     0.13600
C1063       C  0.19987160  0.85056014  0.94101950    -0.24100
H1064       H  0.21273253  0.91404071  0.97470748     0.14900
H1065       H  0.32294546  0.89447000  0.89851211     0.14900
C1066       C  0.33944079  0.95291393  0.93527663    -0.24000
H1067       H  0.17752899  0.86101004  0.95860331     0.05200
H1068       H  0.21245196  0.81812253  0.94631643     0.08400
H1069       H  0.18242869  0.85169443  0.92071386     0.08400
H1070       H  0.35500366  0.94932059  0.95630188     0.08400
H1071       H  0.33064326  0.98641417  0.93065837     0.08400
H1072       H  0.36256434  0.94167289  0.91838070     0.05100
C1073       C  0.50298071  0.62487988  0.72418095    -0.20700
C1074       C  0.00092391  0.62683384  0.69429650    -0.07200
C1075       C  0.00335276  0.66600785  0.68043873     0.13600
C1076       C  0.00248331  0.70279220  0.69685632    -0.20700
C1077       C  0.00242041  0.70196171  0.72749672    -0.07200
C1078       C  0.50449856  0.66113600  0.74056881     0.13600
C1079       C  0.51056109  0.65313765  0.77235615    -0.24100
H1080       H  0.50538114  0.59462048  0.73503029     0.14900
H1081       H  0.00071240  0.73204450  0.68514006     0.14900
C1082       C  0.00622316  0.66908213  0.64814329    -0.24000
H1083       H  0.53888746  0.63121979  0.77547332     0.05200
H1084       H  0.48317314  0.63877692  0.78181016     0.08400
H1085       H  0.51516281  0.68097698  0.78469205     0.08400
H1086       H  0.97878531  0.65641239  0.63881207     0.08400
H1087       H  0.03514335  0.65092013  0.64030998     0.08400
H1088       H  0.00719056  0.70181964  0.64035852     0.05100
C1089       C  0.02781555  0.79365066  0.70803458    -0.20700
C1090       C  0.49243756  0.78582294  0.72648100    -0.07200
C1091       C  0.45965884  0.82004950  0.72923921     0.13600
C1092       C  0.46406493  0.85826691  0.71486247    -0.20700
C1093       C  0.49798503  0.86512296  0.69706307    -0.07200
C1094       C  0.02938294  0.83141853  0.69204523     0.13600
C1095       C  0.06273309  0.83535029  0.66914910    -0.24100
H1096       H  0.05273381  0.76917712  0.70453809     0.14900
H1097       H  0.43964698  0.88374839  0.71684931     0.14900
C1098       C  0.41902019  0.82046376  0.74654640    -0.24000
H1099       H  0.08376423  0.80613503  0.66720991     0.05200
H1100       H  0.08176923  0.86104028  0.67441210     0.08400
H1101       H  0.04810472  0.84228529  0.64802610     0.08400
H1102       H  0.42378982  0.81294082  0.76948412     0.08400
H1103       H  0.39752153  0.80087097  0.73634888     0.08400
H1104       H  0.40120717  0.85170862  0.74692937     0.05100
C1105       C  0.07888807  0.71679468  0.75287485    -0.20700
C1106       C  0.04375071  0.74438710  0.76191493    -0.07200
C1107       C  0.05356853  0.77505503  0.78217412     0.13600
C1108       C  0.09358324  0.77320472  0.79445841    -0.20700
C1109       C  0.12669959  0.74387062  0.78643644    -0.07200
C1110       C  0.11896104  0.71600481  0.76469357     0.13600
C1111       C  0.15270353  0.68438033  0.75406408    -0.24100
H1112       H  0.07625481  0.69535675  0.73569990     0.14900
H1113       H  0.09907235  0.79557403  0.81073150     0.14900
C1114       C  0.02411971  0.81141408  0.79168870    -0.24000
H1115       H  0.14180749  0.66430289  0.73723211     0.05200
H1116       H  0.16383907  0.66378701  0.77222305     0.08400
H1117       H  0.17861372  0.70095731  0.74456983     0.08400
H1118       H  0.01980146  0.81032702  0.81545570     0.08400
H1119       H  0.99345276  0.81188781  0.78248071     0.08400
H1120       H  0.03725706  0.84102177  0.78529594     0.05100
C1121       C  0.46010210  0.74520762  0.79649007    -0.20700
C1122       C  0.45870443  0.73920003  0.76630757    -0.07200
C1123       C  0.41887506  0.72954147  0.75593471     0.13600
C1124       C  0.38324854  0.73274802  0.77426420    -0.20700
C1125       C  0.38434834  0.74529125  0.80273233    -0.07200
C1126       C  0.42354804  0.75010537  0.81433817     0.13600
C1127       C  0.42689298  0.75964104  0.84565738    -0.24100
H1128       H  0.48958254  0.74709714  0.80648930     0.14900
H1129       H  0.35334280  0.72674088  0.76587026     0.14900
C1130       C  0.41111861  0.71900405  0.72508248    -0.24000
H1131       H  0.45972814  0.76202708  0.85160922     0.05200
H1132       H  0.41437471  0.73455557  0.85911056     0.08400
H1133       H  0.40872390  0.78980626  0.85043628     0.08400
H1134       H  0.42388111  0.74183492  0.70991302     0.08400
H1135       H  0.37734819  0.71984143  0.72063123     0.08400
H1136       H  0.42425429  0.68675461  0.72051107     0.05100
C1137       C  0.33859349  0.96421174  0.70425829    -0.20700
C1138       C  0.36812334  0.99006406  0.71424542    -0.07200
C1139       C  0.35662675  0.51926683  0.73495717     0.13600
C1140       C  0.31540464  0.51915636  0.74602416    -0.20700
C1141       C  0.28252003  0.99129813  0.73917438    -0.07200
C1142       C  0.29726046  0.96369809  0.71637487     0.13600
C1143       C  0.27167119  0.93176322  0.70421351    -0.24100
H1144       H  0.34825893  0.94287486  0.68713020     0.14900
H1145       H  0.30901358  0.53886851  0.76427664     0.14900
C1146       C  0.38392023  0.55069446  0.74614607    -0.24000
H1147       H  0.28742173  0.90004650  0.70805423     0.05200
H1148       H  0.27712004  0.43580721  0.67786989     0.08400
H1149       H  0.23994957  0.93243652  0.71348067     0.08400
H1150       H  0.39581137  0.56952192  0.72797318     0.08400
H1151       H  0.40917994  0.02887375  0.75947919     0.08400
H1152       H  0.36669470  0.57269418  0.76130398     0.05100
C1153       C  0.19685747  0.50594446  0.70940018    -0.20700
C1154       C  0.19868836  0.49557954  0.73894301    -0.07200
C1155       C  0.15852576  0.49302873  0.75366690     0.13600
C1156       C  0.12117507  0.49488020  0.73829913    -0.20700
C1157       C  0.12025421  0.50184875  0.70883456    -0.07200
C1158       C  0.15878372  0.50944668  0.69436588     0.13600
C1159       C  0.15987889  0.01560811  0.66465458    -0.24100
H1160       H  0.22321900  0.00850387  0.70041338     0.14900
H1161       H  0.09190210  0.49063878  0.74952684     0.14900
C1162       C  0.15273025  0.48812748  0.78579721    -0.24000
H1163       H  0.19181440  0.02236947  0.65761433     0.05200
H1164       H  0.13772735  0.55064928  0.65952208     0.08400
H1165       H  0.15243244  0.98808985  0.65251703     0.08400
H1166       H  0.17074431  0.45991891  0.79406276     0.08400
H1167       H  0.11604302  0.98759849  0.79502684     0.08400
H1168       H  0.15995094  0.51674629  0.79647190     0.05100
C1169       C  0.23236955  0.56815219  0.82044268    -0.20700
C1170       C  0.23455359  0.60523792  0.80450123    -0.07200
C1171       C  0.23877905  0.60335560  0.77441526     0.13600
C1172       C  0.23554950  0.56565998  0.76108771    -0.20700
C1173       C  0.23699182  0.52677276  0.77621102    -0.07200
C1174       C  0.23461363  0.52874952  0.80723110     0.13600
C1175       C  0.23128538  0.49275634  0.82825176    -0.24100
H1176       H  0.22963452  0.56994144  0.84369675     0.14900
H1177       H  0.23715767  0.56605421  0.73776462     0.14900
C1178       C  0.24950616  0.63945910  0.75526099    -0.24000
H1179       H  0.20369169  0.49972057  0.84279103     0.05200
H1180       H  0.25943191  0.48880508  0.84166009     0.08400
H1181       H  0.22662396  0.46295620  0.81879427     0.08400
H1182       H  0.28146324  0.63236850  0.74599497     0.08400
H1183       H  0.24858864  0.66945622  0.76641373     0.08400
H1184       H  0.22774899  0.64337209  0.73714238     0.05100
C1185       C  0.21502737  0.91384811  0.76547088    -0.20700
C1186       C  0.24395948  0.94319023  0.77211006    -0.07200
C1187       C  0.27826440  0.92722066  0.78956931     0.13600
C1188       C  0.27912230  0.88664505  0.80159933    -0.20700
C1189       C  0.24844222  0.86015236  0.79606672    -0.07200
C1190       C  0.21621875  0.87366639  0.77771579     0.13600
C1191       C  0.18231018  0.84598443  0.77170889    -0.24100
H1192       H  0.19055791  0.92135824  0.75036772     0.14900
H1193       H  0.30441072  0.87510241  0.81541836     0.14900
C1194       C  0.31472054  0.95127950  0.79619536    -0.24000
H1195       H  0.15851812  0.86149285  0.75721558     0.05200
H1196       H  0.16624087  0.83783100  0.79219222     0.08400
H1197       H  0.19603971  0.81692184  0.76139911     0.08400
H1198       H  0.30464080  0.98358441  0.80242376     0.08400
H1199       H  0.33661514  0.95067160  0.77742695     0.08400
H1200       H  0.33281967  0.93689675  0.81443214     0.05100
C1201       C  0.08273484  0.76449109  0.05035926    -0.20700
C1202       C  0.07511316  0.72647036  0.03843806    -0.07200
C1203       C  0.09799410  0.68927966  0.04760480     0.13600
C1204       C  0.12731053  0.69115435  0.06911819    -0.20700
C1205       C  0.13511768  0.72938818  0.08083692    -0.07200
C1206       C  0.11378680  0.76664332  0.07045840     0.13600
C1207       C  0.12325155  0.80861412  0.08059544    -0.24100
H1208       H  0.06361759  0.79263307  0.04442494     0.14900
H1209       H  0.14445211  0.66264027  0.07659926     0.14900
C1210       C  0.09128880  0.64722852  0.03587694    -0.24000
H1211       H  0.10216103  0.83432453  0.07119786     0.05200
H1212       H  0.15563238  0.81374519  0.07379120     0.08400
H1213       H  0.11996217  0.80999346  0.10428144     0.08400
H1214       H  0.06769628  0.64902915  0.01888141     0.08400
H1215       H  0.08080550  0.62669739  0.05356809     0.08400
H1216       H  0.12107377  0.63275790  0.02646443     0.05100
C1217       C  0.41725181  0.70301306  0.05907056    -0.20700
C1218       C  0.42813236  0.73611916  0.04123244    -0.07200
C1219       C  0.41313062  0.77730650  0.04829667     0.13600
C1220       C  0.38485735  0.78413299  0.07143333    -0.20700
C1221       C  0.37257229  0.75099477  0.08880309    -0.07200
C1222       C  0.39029077  0.70981684  0.08306668     0.13600
C1223       C  0.38305422  0.67308520  0.10268994    -0.24100
H1224       H  0.43177389  0.67188586  0.05500886     0.14900
H1225       H  0.37230621  0.81580536  0.07589042     0.14900
C1226       C  0.42877296  0.81436973  0.03255478    -0.24000
H1227       H  0.40267445  0.64447329  0.09614811     0.05200
H1228       H  0.35021264  0.66573685  0.10217332     0.08400
H1229       H  0.39106683  0.67998424  0.12503344     0.08400
H1230       H  0.42017307  0.81418001  0.00975277     0.08400
H1231       H  0.46320692  0.81333700  0.03396546     0.08400
H1232       H  0.41515462  0.84432389  0.04172791     0.05100
C1233       C  0.09082929  0.69757196  0.95577421    -0.20700
C1234       C  0.07798169  0.73085385  0.97370816    -0.07200
C1235       C  0.09677446  0.76863669  0.97055942     0.13600
C1236       C  0.13051729  0.77061731  0.95128257    -0.20700
C1237       C  0.14278965  0.73784842  0.93283935    -0.07200
C1238       C  0.12074862  0.70176596  0.93392932     0.13600
C1239       C  0.12439682  0.66910670  0.91108868    -0.24100
H1240       H  0.07435943  0.66964942  0.95698718     0.14900
H1241       H  0.14487844  0.79925580  0.94906050     0.14900
C1242       C  0.08008646  0.80838043  0.98506157    -0.24000
H1243       H  0.09282319  0.66475872  0.90330740     0.05200
H1244       H  0.13804556  0.63881003  0.92001515     0.08400
H1245       H  0.14245687  0.67835195  0.89196050     0.08400
H1246       H  0.10364624  0.81819067  0.99986602     0.08400
H1247       H  0.05037163  0.80544946  0.99709402     0.08400
H1248       H  0.07365799  0.83338223  0.96854055     0.05100
C1249       C  0.41680341  0.77172977  0.95893044    -0.20700
C1250       C  0.42588877  0.73444286  0.97451254    -0.07200
C1251       C  0.40488764  0.69934342  0.96826624     0.13600
C1252       C  0.37260244  0.70348627  0.94838377    -0.20700
C1253       C  0.36342949  0.74100833  0.93293590    -0.07200
C1254       C  0.38581423  0.77545886  0.93836491     0.13600
C1255       C  0.37580620  0.81686225  0.92358239    -0.24100
H1256       H  0.43495298  0.79776777  0.96232846     0.14900
H1257       H  0.35479784  0.67734854  0.94471620     0.14900
C1258       C  0.41837086  0.65713190  0.98110012    -0.24000
H1259       H  0.39656190  0.84045766  0.93013877     0.05200
H1260       H  0.34348780  0.82833822  0.92973013     0.08400
H1261       H  0.37902147  0.81345601  0.89993391     0.08400
H1262       H  0.41406811  0.65784366  0.00478941     0.08400
H1263       H  0.45179000  0.64850074  0.97563554     0.08400
H1264       H  0.40034405  0.63257079  0.97258281     0.05100
C1265       C  0.38288176  0.01993399  0.27138038    -0.20700
C1266       C  0.38258133  0.02430558  0.30126045    -0.07200
C1267       C  0.34309602  0.02883424  0.31583179     0.13600
C1268       C  0.30617302  0.02592972  0.30040796    -0.20700
C1269       C  0.30649126  0.01676676  0.27070398    -0.07200
C1270       C  0.34630819  0.01729027  0.25588891     0.13600
C1271       C  0.35210719  0.01496566  0.22356589    -0.24100
H1272       H  0.41253502  0.01835027  0.25971444     0.14900
H1273       H  0.27686627  0.03125097  0.31206837     0.14900
C1274       C  0.33901475  0.03653678  0.34769252    -0.24000
H1275       H  0.38553902  0.01086408  0.21679260     0.05200
H1276       H  0.33686048  0.54760568  0.21236464     0.08400
H1277       H  0.33787881  0.98805930  0.21516734     0.08400
H1278       H  0.34922158  0.56100011  0.35288051     0.08400
H1279       H  0.35403553  0.00943425  0.35983677     0.08400
H1280       H  0.30589494  0.04086049  0.35520374     0.05100
C1281       C  0.16916763  0.50046091  0.31021559    -0.20700
C1282       C  0.13965590  0.53286093  0.30173331    -0.07200
C1283       C  0.14904059  0.55761690  0.27784158     0.13600
C1284       C  0.18711099  0.54916408  0.26291249    -0.20700
C1285       C  0.21976526  0.51852244  0.27189650    -0.07200
C1286       C  0.21133729  0.99529417  0.29819732     0.13600
C1287       C  0.23872563  0.95931848  0.31041827    -0.24100
H1288       H  0.16410122  0.98327372  0.33047364     0.14900
H1289       H  0.18911691  0.56614905  0.24284476     0.14900
C1290       C  0.11754128  0.59138210  0.26659998    -0.24000
H1291       H  0.22320439  0.93013251  0.30877441     0.05200
H1292       H  0.24078892  0.45893472  0.33016959     0.08400
H1293       H  0.26882196  0.95472865  0.29927754     0.08400
H1294       H  0.10970330  0.61493468  0.28343022     0.08400
H1295       H  0.09049562  0.06991425  0.25854177     0.08400
H1296       H  0.12947060  0.60789733  0.24733065     0.05100
C1297       C  0.24494348  0.59181663  0.18670215    -0.20700
C1298       C  0.24438434  0.62936456  0.20153336    -0.07200
C1299       C  0.25343242  0.62778691  0.23087538     0.13600
C1300       C  0.26213427  0.58920145  0.24473838    -0.20700
C1301       C  0.26101163  0.55015228  0.23092856    -0.07200
C1302       C  0.25447191  0.55232836  0.20040765     0.13600
C1303       C  0.26005796  0.51600244  0.18031326    -0.24100
H1304       H  0.24010267  0.59345475  0.16374874     0.14900
H1305       H  0.26668208  0.58959184  0.26767928     0.14900
C1306       C  0.25204102  0.66702805  0.24824448    -0.24000
H1307       H  0.27980237  0.52425537  0.16147652     0.05200
H1308       H  0.22929078  0.50908710  0.17240143     0.08400
H1309       H  0.27658833  0.48764464  0.18945042     0.08400
H1310       H  0.22082738  0.68460736  0.24662285     0.08400
H1311       H  0.27629715  0.68695806  0.24021761     0.08400
H1312       H  0.25772471  0.66012236  0.27136582     0.05100
C1313       C  0.28311319  0.89152422  0.23247246    -0.20700
C1314       C  0.24880404  0.88762725  0.21526581    -0.07200
C1315       C  0.21937674  0.92278741  0.21246912     0.13600
C1316       C  0.22566009  0.96048759  0.22621418    -0.20700
C1317       C  0.26234921  0.96676831  0.24136406    -0.07200
C1318       C  0.29111517  0.92950619  0.24533063     0.13600
C1319       C  0.33174323  0.92622482  0.26153898    -0.24100
H1320       H  0.30570930  0.86451075  0.23448387     0.14900
H1321       H  0.20223162  0.98655016  0.22360729     0.14900
C1322       C  0.18086995  0.92084454  0.19506099    -0.24000
H1323       H  0.34229549  0.89326715  0.26711190     0.05200
H1324       H  0.32992146  0.94167866  0.28245236     0.08400
H1325       H  0.35727299  0.93704661  0.24784291     0.08400
H1326       H  0.16318719  0.89488232  0.20323695     0.08400
H1327       H  0.18963625  0.91595830  0.17208018     0.08400
H1328       H  0.15989997  0.95019049  0.19633420     0.05100
C1329       C  0.76343887  0.01390673  0.25279829    -0.02800
C1330       C  0.96017575  0.23162214  0.01990535     0.01900
C1331       C  0.96035445  0.23584331  0.98957790     0.01900
C1332       C  0.49756989  0.23174905  0.97556607    -0.18600
C1333       C  0.53558853  0.23073034  0.98932027     0.01900
C1334       C  0.53650187  0.22721336  0.01943899     0.01900
C1335       C  0.49933334  0.22637846  0.03521247    -0.18600
H1336       H  0.50014083  0.22526151  0.05854703     0.03900
H1337       H  0.49709712  0.23394684  0.95226114     0.03900
C1338       C  0.73905814  0.98961657  0.75579096    -0.02800
C1339       C  0.49655337  0.24323446  0.74611849    -0.02800
C1340       C  0.76872410  0.46961943  0.97854448     0.01900
C1341       C  0.76957452  0.46279749  0.00865392     0.01900
C1342       C  0.77551344  0.99558693  0.02648256    -0.18600
C1343       C  0.77466689  0.03659290  0.01560898     0.01900
C1344       C  0.77113971  0.04260600  0.98546752     0.01900
C1345       C  0.76944942  0.00834776  0.96768361    -0.18600
H1346       H  0.76581528  0.01356865  0.94470454     0.03900
H1347       H  0.77658254  0.99031760  0.04957004     0.03900
O1348       O  0.82342521  0.25241376  0.88588374    -0.80500
O1349       O  0.69630671  0.16540656  0.82939200    -0.80500
O1350       O  0.77610573  0.18579542  0.88905110    -0.80500
O1351       O  0.81911212  0.22099922  0.81820575    -0.81300
O1352       O  0.71099069  0.17136116  0.88713508    -0.80600
O1353       O  0.82530038  0.28472710  0.83059736    -0.80500
O1354       O  0.76191790  0.16731065  0.81615190    -0.80500
O1355       O  0.78730904  0.24778283  0.92624235    -0.80500
C1356       C  0.82218017  0.24813144  0.91357775     1.09200
C1357       C  0.72969672  0.14831182  0.81802896     1.09100
C1358       C  0.74800599  0.16283246  0.89604221     1.09200
C1359       C  0.84079415  0.25147083  0.81872449     1.09100
O1360       O  0.74080055  0.32145954  0.83657561    -0.80500
O1361       O  0.66667009  0.25653773  0.88445390    -0.80600
O1362       O  0.74181039  0.30857055  0.89715358    -0.80500
O1363       O  0.69949521  0.23050044  0.79216595    -0.80500
O1364       O  0.65868165  0.25089797  0.82864542    -0.80500
O1365       O  0.79667940  0.33358170  0.87700596    -0.80500
O1366       O  0.75979905  0.28814473  0.79655819    -0.80500
O1367       O  0.70966153  0.23516913  0.91708123    -0.80500
Co1368     Co  0.77797061  0.28530804  0.86051356     1.51500
Co1369     Co  0.68663978  0.21316186  0.85711766     1.51700
Co1370     Co  0.75906160  0.24526368  0.89119134     1.51600
Co1371     Co  0.75926854  0.22756980  0.80845771     1.51500
O1372       O  0.74171639  0.23942535  0.85017896    -1.42400
C1373       C  0.74789549  0.32152446  0.80985457     1.09100
C1374       C  0.67289259  0.24663913  0.91010428     1.09200
C1375       C  0.76686498  0.33768783  0.89541416     1.09100
C1376       C  0.66326736  0.24378513  0.80228945     1.09100
O1377       O  0.82488294  0.31541369  0.17115803    -0.80500
O1378       O  0.74550843  0.18060842  0.11962655    -0.80500
O1379       O  0.76841498  0.19386019  0.18429266    -0.80500
O1380       O  0.81309911  0.23297976  0.11711094    -0.80500
O1381       O  0.70528124  0.18535945  0.17301246    -0.80600
O1382       O  0.82148590  0.29956514  0.11406511    -0.80500
O1383       O  0.75743785  0.21119916  0.07825380    -0.80500
O1384       O  0.82157558  0.25052816  0.18578370    -0.80500
C1385       C  0.84184045  0.28188717  0.18248969     1.09200
C1386       C  0.75448580  0.17782580  0.09232293     1.09100
C1387       C  0.73864544  0.17150300  0.18492476     1.09200
C1388       C  0.83419310  0.26182238  0.10840722     1.09100
O1389       O  0.73553025  0.33957932  0.11324930    -0.80500
O1390       O  0.66608800  0.26712103  0.16191875    -0.80600
O1391       O  0.75852291  0.31398805  0.20764652    -0.80500
O1392       O  0.69121788  0.25665721  0.10129312    -0.80500
O1393       O  0.66329165  0.20421021  0.12308747    -0.80500
O1394       O  0.73859122  0.35314623  0.17047017    -0.80500
O1395       O  0.76064492  0.29187108  0.08399598    -0.80500
O1396       O  0.69823479  0.25558882  0.20323736    -0.80500
Co1397     Co  0.77758124  0.32355958  0.14266370     1.51500
Co1398     Co  0.70737729  0.22854778  0.14101051     1.51700
Co1399     Co  0.76079611  0.25395641  0.19274656     1.51600
Co1400     Co  0.75333265  0.24442891  0.11152677     1.51500
O1401       O  0.75093689  0.26847030  0.15089306    -1.42400
C1402       C  0.74513422  0.32876472  0.08797050     1.09100
C1403       C  0.66474744  0.26558621  0.18918127     1.09200
C1404       C  0.74579016  0.34974969  0.19692430     1.09100
C1405       C  0.66316080  0.23063761  0.10251980     1.09100
O1406       O  0.57948034  0.98932238  0.66856137    -0.80500
O1407       O  0.98399647  0.43439983  0.60183121    -0.80500
O1408       O  0.50168102  0.43836482  0.69367561    -0.80500
O1409       O  0.53050223  0.49667978  0.58073015    -0.80500
O1410       O  0.97830449  0.40762769  0.65710077    -0.80600
O1411       O  0.57919609  0.98437154  0.61183934    -0.80500
O1412       O  0.45668282  0.47753760  0.56877606    -0.80500
O1413       O  0.54178664  0.50808507  0.70493674    -0.80500
C1414       C  0.57642732  0.99973332  0.69436171     1.09200
C1415       C  0.97233032  0.44192830  0.57570835     1.09100
C1416       C  0.99549147  0.40614717  0.68105828     1.09200
C1417       C  0.56798702  0.98804294  0.58635612     1.09100
O1418       O  0.53273137  0.06719592  0.60799077    -0.80500
O1419       O  0.92001072  0.47781952  0.67488945    -0.80600
O1420       O  0.97267040  0.06221460  0.68068793    -0.80500
O1421       O  0.91545544  0.99933011  0.61708283    -0.80500
O1422       O  0.90678319  0.43633784  0.62542602    -0.80500
O1423       O  0.53683228  0.07300556  0.66661614    -0.80500
O1424       O  0.96886199  0.05550347  0.59770310    -0.80500
O1425       O  0.94276678  0.99939666  0.71422887    -0.80500
Co1426     Co  0.55421241  0.02633826  0.63891366     1.51500
Co1427     Co  0.95652023  0.45961272  0.63817866     1.51700
Co1428     Co  0.48495551  0.00030067  0.68445333     1.51600
Co1429     Co  0.47618159  0.99721485  0.60431331     1.51500
O1430       O  0.50219965  0.99647587  0.64409121    -1.42400
C1431       C  0.49787270  0.07876517  0.59633825     1.09100
C1432       C  0.91416552  0.49022005  0.70124334     1.09200
C1433       C  0.50222648  0.08567471  0.67888058     1.09100
C1434       C  0.89342883  0.47131670  0.61419420     1.09100
O1435       O  0.49048880  0.10106267  0.33293322    -0.80500
O1436       O  0.91568987  0.46288272  0.38073203    -0.80500
O1437       O  0.95685099  0.00684644  0.29976637    -0.80500
O1438       O  0.52311197  0.04093154  0.41728509    -0.80500
O1439       O  0.92330579  0.52537699  0.33996431    -0.80600
O1440       O  0.49197145  0.08700116  0.38891865    -0.80500
O1441       O  0.95540293  0.00310031  0.40505519    -0.80500
O1442       O  0.01488179  0.06626805  0.29235217    -0.80500
C1443       C  0.49891657  0.10283320  0.30659808     1.09200
C1444       C  0.92148133  0.48276950  0.40333308     1.09100
C1445       C  0.92133287  0.52179566  0.31293484     1.09200
C1446       C  0.50231707  0.07567558  0.41381966     1.09100
O1447       O  0.58068221  0.05502386  0.38391594    -0.80500
O1448       O  0.95833644  0.44207176  0.32961908    -0.80600
O1449       O  0.57752742  0.50556213  0.31272082    -0.80500
O1450       O  0.52385119  0.46000881  0.42181231    -0.80500
O1451       O  0.99703306  0.43412566  0.38106454    -0.80500
O1452       O  0.57997917  0.07091853  0.32672022    -0.80500
O1453       O  0.57660932  0.48894130  0.38108571    -0.80500
O1454       O  0.52374155  0.44772204  0.31640858    -0.80500
Co1455     Co  0.53369234  0.07580839  0.35779261     1.51500
Co1456     Co  0.96167029  0.48439132  0.36079681     1.51700
Co1457     Co  0.51695075  0.50857707  0.30795148     1.51600
Co1458     Co  0.51625244  0.49538429  0.38966181     1.51500
O1459       O  0.50886851  0.52077267  0.35041001    -1.42400
C1460       C  0.59707689  0.01810900  0.38909929     1.09100
C1461       C  0.99083744  0.42564648  0.31681406     1.09200
C1462       C  0.59911677  0.03773381  0.31642957     1.09100
C1463       C  0.01135879  0.42819980  0.40675016     1.09100
C1464       C  0.99950069  0.29214763  0.50955794     0.01900
C1465       C  0.00944058  0.28565562  0.48010655     0.01900
C1466       C  0.01141435  0.24554371  0.46914792    -0.18600
C1467       C  0.00484470  0.21145668  0.48692169     0.01900
C1468       C  0.99785195  0.21722344  0.51650502     0.01900
C1469       C  0.99323423  0.25745168  0.52731728    -0.18600
H1470       H  0.98602897  0.26156246  0.55004765     0.03900
H1471       H  0.01727932  0.24085454  0.44629589     0.03900
C1472       C  0.78251305  0.98534880  0.51848378     0.01900
C1473       C  0.79078424  0.98573701  0.48832021     0.01900
C1474       C  0.75676278  0.49752575  0.46912800    -0.18600
C1475       C  0.71627853  0.00088980  0.47982579     0.01900
C1476       C  0.70775619  0.99762585  0.50959291     0.01900
C1477       C  0.74095916  0.99122455  0.52843703    -0.18600
H1478       H  0.73417512  0.98949449  0.55139961     0.03900
H1479       H  0.76317253  0.49851322  0.44610551     0.03900
C1480       C  0.49745698  0.27170485  0.25110088    -0.02800
C1481       C  0.96200715  0.38132327  0.28122583    -0.20700
C1482       C  0.99162858  0.38507982  0.30197780    -0.07200
C1483       C  0.52566119  0.35465342  0.30593420     0.13600
C1484       C  0.52714528  0.31975487  0.28791365    -0.20700
C1485       C  0.99518070  0.31214178  0.26666859    -0.07200
C1486       C  0.96618158  0.34864521  0.26144141     0.13600
C1487       C  0.94469041  0.36009569  0.23343125    -0.24100
H1488       H  0.93844083  0.40725949  0.27791845     0.14900
H1489       H  0.55207662  0.29549866  0.29069902     0.14900
C1490       C  0.55780023  0.35599114  0.32875260    -0.24000
H1491       H  0.94640986  0.39375170  0.22820028     0.05200
H1492       H  0.91113099  0.35512906  0.23521113     0.08400
H1493       H  0.46044526  0.34647115  0.21495067     0.08400
H1494       H  0.04708032  0.36149508  0.34656561     0.08400
H1495       H  0.57635679  0.38294634  0.32474997     0.08400
H1496       H  0.57972833  0.32724994  0.32905923     0.05100
C1497       C  0.99477756  0.19055181  0.24926742    -0.20700
C1498       C  0.49370112  0.22939645  0.26864108    -0.07200
C1499       C  0.49151805  0.22196075  0.29923454     0.13600
C1500       C  0.49309886  0.18052075  0.31003707    -0.20700
C1501       C  0.49432382  0.14537528  0.29232913    -0.07200
C1502       C  0.99483714  0.14928938  0.26012317     0.13600
C1503       C  0.99525708  0.11400001  0.23935844    -0.24100
H1504       H  0.99690221  0.19484440  0.22614548     0.14900
H1505       H  0.49401228  0.17563323  0.33314440     0.14900
C1506       C  0.48824108  0.25486955  0.32203788    -0.24000
H1507       H  0.99368563  0.12548875  0.21670348     0.05200
H1508       H  0.96795202  0.09603808  0.24389228     0.08400
H1509       H  0.51846701  0.09554395  0.24285945     0.08400
H1510       H  0.96897445  0.27926659  0.31529105     0.08400
H1511       H  0.51975450  0.26050363  0.32918486     0.08400
H1512       H  0.47072975  0.24422675  0.34130640     0.05100
C1513       C  0.52670420  0.10327594  0.45823288    -0.20700
C1514       C  0.49568551  0.10493033  0.43754608    -0.07200
C1515       C  0.96385168  0.13659829  0.43716737     0.13600
C1516       C  0.96599890  0.16915871  0.45621665    -0.20700
C1517       C  0.49973934  0.17128675  0.47477999    -0.07200
C1518       C  0.53042018  0.13711344  0.47585340     0.13600
C1519       C  0.56940741  0.13679190  0.49292247    -0.24100
H1520       H  0.55126449  0.07780941  0.45829193     0.14900
H1521       H  0.94114412  0.19434316  0.45674015     0.14900
C1522       C  0.92598926  0.13817055  0.41861102    -0.24000
H1523       H  0.59710256  0.12906119  0.47867318     0.05200
H1524       H  0.56887334  0.11291956  0.51046504     0.08400
H1525       H  0.57324197  0.16743240  0.50210268     0.08400
H1526       H  0.92490954  0.11033401  0.40523907     0.08400
H1527       H  0.92510913  0.16618028  0.40422440     0.08400
H1528       H  0.89738252  0.14033045  0.43256962     0.05100
C1529       C  0.54961561  0.37957679  0.44159974    -0.20700
C1530       C  0.01591913  0.38682490  0.42050099    -0.07200
C1531       C  0.98653759  0.35751348  0.41707860     0.13600
C1532       C  0.98532297  0.32486865  0.43713899    -0.20700
C1533       C  0.01403045  0.31975753  0.45932988    -0.07200
C1534       C  0.55065307  0.34429907  0.45954714     0.13600
C1535       C  0.58768430  0.33378527  0.47830777    -0.24100
H1536       H  0.57283116  0.40137241  0.44408496     0.14900
H1537       H  0.96129443  0.30357865  0.43592234     0.14900
C1538       C  0.95526469  0.36105012  0.39347047    -0.24000
H1539       H  0.61216836  0.35542908  0.47418060     0.05200
H1540       H  0.60161354  0.30165125  0.47387134     0.08400
H1541       H  0.57848077  0.33602247  0.50121326     0.08400
H1542       H  0.97163986  0.36141761  0.37217539     0.08400
H1543       H  0.93407209  0.38975877  0.39608085     0.08400
H1544       H  0.93574026  0.33437523  0.39393876     0.05100
C1545       C  0.67252411  0.47311141  0.44356709    -0.20700
C1546       C  0.68403557  0.00633440  0.45777884    -0.07200
C1547       C  0.67424041  0.04524137  0.44380834     0.13600
C1548       C  0.64741090  0.04772625  0.42055082    -0.20700
C1549       C  0.63229927  0.01194781  0.40934262    -0.07200
C1550       C  0.64706377  0.97229836  0.42094958     0.13600
C1551       C  0.64079396  0.43504913  0.40467154    -0.24100
H1552       H  0.68544506  0.44300138  0.45175010     0.14900
H1553       H  0.63819196  0.07820359  0.41120025     0.14900
C1554       C  0.69274164  0.08449148  0.45204097    -0.24000
H1555       H  0.65907666  0.40784752  0.41471674     0.05200
H1556       H  0.65106062  0.43710956  0.38175544     0.08400
H1557       H  0.60663403  0.92683249  0.40709581     0.08400
H1558       H  0.70125010  0.60389053  0.43712646     0.08400
H1559       H  0.71320686  0.07995555  0.47083366     0.08400
H1560       H  0.66741530  0.10917816  0.45717695     0.05100
C1561       C  0.86284094  0.00260365  0.47578436    -0.20700
C1562       C  0.83111170  0.47766476  0.47377268    -0.07200
C1563       C  0.83557403  0.44660818  0.45250752     0.13600
C1564       C  0.86533361  0.44914312  0.43019828    -0.20700
C1565       C  0.89226708  0.48102400  0.42888096    -0.07200
C1566       C  0.89476609  0.00393376  0.45453816     0.13600
C1567       C  0.92693867  0.03409470  0.45833242    -0.24100
H1568       H  0.86036033  0.02499770  0.49295819     0.14900
H1569       H  0.86678154  0.42624726  0.41338439     0.14900
C1570       C  0.80731730  0.41184862  0.45180814    -0.24000
H1571       H  0.92183771  0.05159931  0.47863845     0.05200
H1572       H  0.91859204  0.56220560  0.43511562     0.08400
H1573       H  0.95850391  0.01706370  0.45893418     0.08400
H1574       H  0.78871977  0.41491244  0.43199544     0.08400
H1575       H  0.78554958  0.41178800  0.47069541     0.08400
H1576       H  0.82646528  0.38134116  0.45180458     0.05100
C1577       C  0.61051715  0.02890938  0.55382332    -0.20700
C1578       C  0.59958066  0.98951804  0.56291243    -0.07200
C1579       C  0.62073583  0.95350733  0.55083400     0.13600
C1580       C  0.64319326  0.46902541  0.52128387    -0.20700
C1581       C  0.66556288  0.99681072  0.52260921    -0.07200
C1582       C  0.64395401  0.03295796  0.53434176     0.13600
C1583       C  0.65743430  0.07557485  0.52756081    -0.24100
H1584       H  0.59420891  0.05658369  0.56316781     0.14900
H1585       H  0.65412234  0.44423550  0.50676156     0.14900
C1586       C  0.58899113  0.42407764  0.54020334    -0.24000
H1587       H  0.63832741  0.10022625  0.53963216     0.05200
H1588       H  0.66588534  0.59333539  0.51839722     0.08400
H1589       H  0.69054340  0.07687466  0.53320246     0.08400
H1590       H  0.55589452  0.43280725  0.53523290     0.08400
H1591       H  0.60971082  0.90611968  0.58274460     0.08400
H1592       H  0.60253637  0.40277051  0.52323215     0.05100
C1593       C  0.81749866  0.51758224  0.55803644    -0.20700
C1594       C  0.81315733  0.48292696  0.54093205    -0.07200
C1595       C  0.83071029  0.44332000  0.55040545     0.13600
C1596       C  0.85458567  0.43988551  0.57551564    -0.20700
C1597       C  0.86040677  0.47499956  0.59202610    -0.07200
C1598       C  0.83997174  0.51409081  0.58360287     0.13600
C1599       C  0.83963900  0.55192871  0.60216661    -0.24100
H1600       H  0.80165757  0.54748845  0.55182189     0.14900
H1601       H  0.86996289  0.40977580  0.58165657     0.14900
C1602       C  0.82734547  0.90226056  0.53241480    -0.24000
H1603       H  0.81919379  0.57869634  0.59347887     0.05200
H1604       H  0.87125310  0.56223583  0.60342003     0.08400
H1605       H  0.84752246  0.03760293  0.62688830     0.08400
H1606       H  0.79029408  0.40132182  0.53275779     0.08400
H1607       H  0.84290201  0.87354995  0.54248426     0.08400
H1608       H  0.84123366  0.90575948  0.51055238     0.05100
C1609       C  0.52877054  0.14087593  0.57709522    -0.20700
C1610       C  0.49473094  0.11667780  0.57778430    -0.07200
C1611       C  0.96131746  0.12598066  0.55838945     0.13600
C1612       C  0.96291085  0.15971276  0.53905765    -0.20700
C1613       C  0.49839173  0.18360492  0.53842271    -0.07200
C1614       C  0.53135160  0.17373118  0.55750735     0.13600
C1615       C  0.57078090  0.19557607  0.55701856    -0.24100
H1616       H  0.55476726  0.13318184  0.59115391     0.14900
H1617       H  0.93682121  0.16866098  0.52527859     0.14900
C1618       C  0.92277018  0.10272945  0.55874345    -0.24000
H1619       H  0.59825590  0.17220172  0.55486274     0.05200
H1620       H  0.57290697  0.21245087  0.57740244     0.08400
H1621       H  0.57272792  0.21772126  0.53871469     0.08400
H1622       H  0.89918597  0.11666067  0.54348608     0.08400
H1623       H  0.40690050  0.10421213  0.57935187     0.08400
H1624       H  0.93094528  0.06990577  0.55233643     0.05100
C1625       C  0.96978309  0.36720277  0.51284451    -0.20700
C1626       C  0.99684795  0.33363265  0.52324446    -0.07200
C1627       C  0.52367317  0.33989805  0.54737692     0.13600
C1628       C  0.51290280  0.37473097  0.56378966    -0.20700
C1629       C  0.98116686  0.40731623  0.55523280    -0.07200
C1630       C  0.96305858  0.40486922  0.52800725     0.13600
C1631       C  0.93689208  0.44117533  0.51488739    -0.24100
H1632       H  0.95337857  0.36377814  0.49315234     0.14900
H1633       H  0.52923882  0.37704701  0.58367614     0.14900
C1634       C  0.55959108  0.31012867  0.55738429    -0.24000
H1635       H  0.92503884  0.43341072  0.49364556     0.05200
H1636       H  0.95595110  0.46795987  0.51165386     0.08400
H1637       H  0.90977376  0.45055231  0.52912551     0.08400
H1638       H  0.57003961  0.28687531  0.54099944     0.08400
H1639       H  0.55061758  0.29408395  0.57765617     0.08400
H1640       H  0.58688986  0.32765376  0.56137740     0.05100
C1641       C  0.61740939  0.24276206  0.22817221    -0.20700
C1642       C  0.62292728  0.26962115  0.20484637    -0.07200
C1643       C  0.58837200  0.29740710  0.19682907     0.13600
C1644       C  0.54955932  0.29679486  0.21200841    -0.20700
C1645       C  0.54211661  0.26775090  0.23455297    -0.07200
C1646       C  0.57915171  0.24167608  0.24362113     0.13600
C1647       C  0.58251657  0.21322859  0.27007505    -0.24100
H1648       H  0.64399532  0.22160716  0.23434583     0.14900
H1649       H  0.52454994  0.31959029  0.20588056     0.14900
C1650       C  0.59240037  0.32855864  0.17260754    -0.24000
H1651       H  0.56755107  0.18436671  0.26679374     0.05200
H1652       H  0.57064685  0.22930132  0.28970573     0.08400
H1653       H  0.61533061  0.20220998  0.27494718     0.08400
H1654       H  0.59826485  0.31189621  0.15213035     0.08400
H1655       H  0.61856742  0.34762904  0.17653675     0.08400
H1656       H  0.56355086  0.34998310  0.17029934     0.05100
C1657       C  0.87989124  0.27796894  0.22706966    -0.20700
C1658       C  0.88242351  0.28029609  0.19730080    -0.07200
C1659       C  0.92218089  0.27465921  0.18363894     0.13600
C1660       C  0.95856254  0.26825114  0.20046328    -0.20700
C1661       C  0.95674604  0.27015601  0.23102446    -0.07200
C1662       C  0.91527972  0.27275077  0.24411261     0.13600
C1663       C  0.90585054  0.27124821  0.27608927    -0.24100
H1664       H  0.84904417  0.28036945  0.23723029     0.14900
H1665       H  0.98824265  0.26206196  0.18933670     0.14900
C1666       C  0.92609213  0.27483928  0.15137626    -0.24000
H1667       H  0.87187187  0.27539526  0.28127286     0.05200
H1668       H  0.91875179  0.29700717  0.28691519     0.08400
H1669       H  0.91630548  0.24037711  0.28534882     0.08400
H1670       H  0.91198654  0.30506025  0.14253729     0.08400
H1671       H  0.90965954  0.24913053  0.14289641     0.08400
H1672       H  0.95919464  0.27052757  0.14383667     0.05100
C1673       C  0.79461509  0.13579723  0.05522573    -0.20700
C1674       C  0.76293343  0.13771885  0.07677704    -0.07200
C1675       C  0.73705388  0.10444713  0.07915716     0.13600
C1676       C  0.74194584  0.07235661  0.05890020    -0.20700
C1677       C  0.77264376  0.07142424  0.03669255    -0.07200
C1678       C  0.80076381  0.10255134  0.03602882     0.13600
C1679       C  0.83831170  0.10131056  0.01608303    -0.24100
H1680       H  0.81498754  0.16070728  0.05322906     0.14900
H1681       H  0.72078710  0.04806381  0.06013264     0.14900
C1682       C  0.70296802  0.10168356  0.10175579    -0.24000
H1683       H  0.86672185  0.10360482  0.02873643     0.05200
H1684       H  0.83456315  0.12817392  0.00076028     0.08400
H1685       H  0.84333497  0.07198611  0.00396631     0.08400
H1686       H  0.69926269  0.12830757  0.11636139     0.08400
H1687       H  0.70982094  0.07293698  0.11503788     0.08400
H1688       H  0.67274043  0.09961708  0.09124583     0.05100
C1689       C  0.72395571  0.42753608  0.04240628    -0.20700
C1690       C  0.75854551  0.42375529  0.02324840    -0.07200
C1691       C  0.78496672  0.38624268  0.02308730     0.13600
C1692       C  0.77685807  0.35430713  0.04285023    -0.20700
C1693       C  0.74508018  0.36001884  0.06414854    -0.07200
C1694       C  0.71793708  0.39719040  0.06371952     0.13600
C1695       C  0.68408457  0.40658536  0.08632912    -0.24100
H1696       H  0.70374688  0.45645007  0.04239587     0.14900
H1697       H  0.79772670  0.32590234  0.04310175     0.14900
C1698       C  0.82343855  0.38048333  0.00395475    -0.24000
H1699       H  0.66478292  0.43618892  0.08148176     0.05200
H1700       H  0.69807478  0.41004048  0.10757051     0.08400
H1701       H  0.66300525  0.38143272  0.08765089     0.08400
H1702       H  0.84316225  0.40655118  0.00657410     0.08400
H1703       H  0.81487003  0.37834424  0.98127754     0.08400
H1704       H  0.84234384  0.35091999  0.00915970     0.05100
C1705       C  0.80157546  0.08729095  0.94963461    -0.20700
C1706       C  0.76893210  0.08281785  0.96984717    -0.07200
C1707       C  0.73021472  0.10631798  0.96617739     0.13600
C1708       C  0.72469396  0.13218861  0.94184775    -0.20700
C1709       C  0.75586024  0.13330465  0.92022350    -0.07200
C1710       C  0.79517710  0.11108905  0.92440031     0.13600
C1711       C  0.82943387  0.10971556  0.90157605    -0.24100
H1712       H  0.83076573  0.06798883  0.95202370     0.14900
H1713       H  0.69551217  0.15128371  0.93967114     0.14900
C1714       C  0.69325336  0.10302976  0.98635273    -0.24000
H1715       H  0.85667940  0.08789889  0.90767013     0.05200
H1716       H  0.84076376  0.14094002  0.89820128     0.08400
H1717       H  0.81758062  0.09894086  0.88108799     0.08400
H1718       H  0.69981124  0.08073336  0.00441362     0.08400
H1719       H  0.66688421  0.09257087  0.97436345     0.08400
H1720       H  0.68358145  0.13413167  0.99545575     0.05100
C1721       C  0.73403533  0.41164119  0.95745532    -0.20700
C1722       C  0.76732082  0.43653856  0.95689816    -0.07200
C1723       C  0.79842953  0.43088763  0.93481414     0.13600
C1724       C  0.79482964  0.40109737  0.91375740    -0.20700
C1725       C  0.76297831  0.37405526  0.91517427    -0.07200
C1726       C  0.73201748  0.37983387  0.93743345     0.13600
C1727       C  0.69704912  0.35248709  0.94084029    -0.24100
H1728       H  0.70992046  0.41659219  0.97404884     0.14900
H1729       H  0.81888529  0.39722636  0.89704247     0.14900
C1730       C  0.83726745  0.45386032  0.93445370    -0.24000
H1731       H  0.67515386  0.36263464  0.95874627     0.05200
H1732       H  0.70984283  0.32002249  0.94588223     0.08400
H1733       H  0.67907276  0.35367737  0.92076648     0.08400
H1734       H  0.85260170  0.44959341  0.95553496     0.08400
H1735       H  0.82969363  0.48755124  0.92985924     0.08400
H1736       H  0.86024237  0.44197078  0.91765054     0.05100
C1737       C  0.99958141  0.12559713  0.72430330    -0.20700
C1738       C  0.49907394  0.12630775  0.69454576    -0.07200
C1739       C  0.50167822  0.16547295  0.68068793     0.13600
C1740       C  0.50042428  0.20232927  0.69704549    -0.20700
C1741       C  0.49955824  0.20167707  0.72766744    -0.07200
C1742       C  0.99936188  0.16191788  0.74091458     0.13600
C1743       C  0.99937218  0.15505924  0.77322075    -0.24100
H1744       H  0.00073641  0.09528462  0.73498925     0.14900
H1745       H  0.49925262  0.23156449  0.68529150     0.14900
C1746       C  0.50528424  0.16845165  0.64843355    -0.24000
H1747       H  0.00668296  0.12165459  0.77918173     0.05200
H1748       H  0.96802275  0.16417498  0.78266448     0.08400
H1749       H  0.02302555  0.17215166  0.78348685     0.08400
H1750       H  0.47821228  0.15553684  0.63878809     0.08400
H1751       H  0.53450942  0.15044788  0.64101678     0.08400
H1752       H  0.50621469  0.20118341  0.64061857     0.05100
C1753       C  0.52587972  0.29363593  0.70876198    -0.20700
C1754       C  0.99153433  0.28684164  0.72678323    -0.07200
C1755       C  0.95954064  0.32189375  0.72970885     0.13600
C1756       C  0.96467994  0.35983991  0.71524093    -0.20700
C1757       C  0.99848458  0.36586700  0.69720150    -0.07200
C1758       C  0.52889635  0.33195326  0.69378033     0.13600
C1759       C  0.56592276  0.33780863  0.67424108    -0.24100
H1760       H  0.55142726  0.26955774  0.70617030     0.14900
H1761       H  0.94083751  0.38585228  0.71730675     0.14900
C1762       C  0.91900651  0.32373562  0.74731784    -0.24000
H1763       H  0.58809191  0.30926512  0.67352382     0.05200
H1764       H  0.58269557  0.36381618  0.68203095     0.08400
H1765       H  0.55533905  0.34534096  0.65206126     0.08400
H1766       H  0.92363284  0.31576562  0.77019711     0.08400
H1767       H  0.89639490  0.30542613  0.73709696     0.08400
H1768       H  0.90244260  0.35555894  0.74806989     0.05100
C1769       C  0.57531467  0.21661091  0.75370390    -0.20700
C1770       C  0.54044578  0.24512573  0.76177824    -0.07200
C1771       C  0.55062284  0.27776452  0.78040088     0.13600
C1772       C  0.59102950  0.27727630  0.79200902    -0.20700
C1773       C  0.62392841  0.24713252  0.78486914    -0.07200
C1774       C  0.61561730  0.21717330  0.76475479     0.13600
C1775       C  0.64910971  0.18476349  0.75499081    -0.24100
H1776       H  0.57245263  0.19338405  0.73777373     0.14900
H1777       H  0.59693178  0.30113244  0.80707617     0.14900
C1778       C  0.52115083  0.31487053  0.78869936    -0.24000
H1779       H  0.63788315  0.16307842  0.73932338     0.05200
H1780       H  0.66080520  0.16588708  0.77378954     0.08400
H1781       H  0.67456131  0.20074402  0.74431839     0.08400
H1782       H  0.51795716  0.31631552  0.81249661     0.08400
H1783       H  0.48988596  0.31407652  0.78046615     0.08400
H1784       H  0.53366558  0.34390831  0.78039953     0.05100
C1785       C  0.95749604  0.24692308  0.79638290    -0.20700
C1786       C  0.95624900  0.24147833  0.76615221    -0.07200
C1787       C  0.91620861  0.23328175  0.75534266     0.13600
C1788       C  0.88039405  0.23687408  0.77345477    -0.20700
C1789       C  0.88147435  0.24831559  0.80214257    -0.07200
C1790       C  0.92073790  0.25226959  0.81403212     0.13600
C1791       C  0.92389401  0.26158002  0.84538555    -0.24100
H1792       H  0.98704383  0.24794326  0.80654596     0.14900
H1793       H  0.85040092  0.23184485  0.76476298     0.14900
C1794       C  0.90860727  0.22383633  0.72426328    -0.24000
H1795       H  0.95675345  0.26328490  0.85155353     0.05200
H1796       H  0.91065841  0.23679857  0.85872928     0.08400
H1797       H  0.90627582  0.29206302  0.85002672     0.08400
H1798       H  0.92259497  0.24636329  0.70946466     0.08400
H1799       H  0.87486427  0.22614103  0.71949667     0.08400
H1800       H  0.92061477  0.19132673  0.71943527     0.05100
C1801       C  0.84127764  0.46522430  0.70428838    -0.20700
C1802       C  0.86993256  0.49189326  0.71433636    -0.07200
C1803       C  0.85271863  0.02061186  0.73297346     0.13600
C1804       C  0.81193983  0.02025725  0.74498214    -0.20700
C1805       C  0.78372336  0.49246005  0.73789894    -0.07200
C1806       C  0.79944777  0.46491719  0.71532774     0.13600
C1807       C  0.77441982  0.43350098  0.70202941    -0.24100
H1808       H  0.85186536  0.44345871  0.68758146     0.14900
H1809       H  0.80594402  0.04030620  0.76309096     0.14900
C1810       C  0.87949236  0.05356151  0.74253256    -0.24000
H1811       H  0.78915956  0.40153671  0.70647842     0.05200
H1812       H  0.76929407  0.94006848  0.67734157     0.08400
H1813       H  0.74193297  0.43505706  0.70973113     0.08400
H1814       H  0.89040194  0.07133653  0.72350648     0.08400
H1815       H  0.90884376  0.53670963  0.75758272     0.08400
H1816       H  0.86211643  0.07633222  0.75709026     0.05100
C1817       C  0.69321365  0.00641058  0.71037968    -0.20700
C1818       C  0.69522840  0.99601581  0.73988043    -0.07200
C1819       C  0.65516716  0.99323427  0.75473161     0.13600
C1820       C  0.61772505  0.99520590  0.73941546    -0.20700
C1821       C  0.61689012  0.00162612  0.70986783    -0.07200
C1822       C  0.65533395  0.00901643  0.69530748     0.13600
C1823       C  0.65995667  0.51934342  0.66371559    -0.24100
H1824       H  0.72385158  0.51090464  0.69918383     0.14900
H1825       H  0.58844404  0.99114366  0.75068067     0.14900
C1826       C  0.64956604  0.98787006  0.78686105    -0.24000
H1827       H  0.69141198  0.52793794  0.65696520     0.05200
H1828       H  0.63434274  0.04809893  0.65934146     0.08400
H1829       H  0.65343548  0.49260696  0.65045073     0.08400
H1830       H  0.66780036  0.95970549  0.79502003     0.08400
H1831       H  0.61750747  0.48142260  0.79299066     0.08400
H1832       H  0.65666045  0.01641135  0.79766866     0.05100
C1833       C  0.72842859  0.07088233  0.82016428    -0.20700
C1834       C  0.73030409  0.10767116  0.80378656    -0.07200
C1835       C  0.73455014  0.10499769  0.77373731     0.13600
C1836       C  0.73209821  0.06682961  0.76086662    -0.20700
C1837       C  0.73384883  0.02830362  0.77640028    -0.07200
C1838       C  0.73104105  0.03108934  0.80738658     0.13600
C1839       C  0.72774280  0.99550545  0.82875987    -0.24100
H1840       H  0.72564239  0.07320825  0.84337302     0.14900
H1841       H  0.73373611  0.06668551  0.73756517     0.14900
C1842       C  0.74445967  0.14082559  0.75408807    -0.24000
H1843       H  0.69975880  0.00240573  0.84295463     0.05200
H1844       H  0.75556816  0.99229814  0.84248121     0.08400
H1845       H  0.72390672  0.96533324  0.81950387     0.08400
H1846       H  0.77645118  0.13414145  0.74481349     0.08400
H1847       H  0.74299689  0.17114186  0.76488792     0.08400
H1848       H  0.72262780  0.14371103  0.73598123     0.05100
C1849       C  0.71849942  0.41336552  0.76128328    -0.20700
C1850       C  0.74527408  0.44359477  0.77001370    -0.07200
C1851       C  0.77789097  0.42854413  0.78900964     0.13600
C1852       C  0.77691816  0.38888285  0.80215109    -0.20700
C1853       C  0.74743592  0.36187575  0.79489222    -0.07200
C1854       C  0.71889563  0.37351437  0.77361580     0.13600
C1855       C  0.68789279  0.34428544  0.76451037    -0.24100
H1856       H  0.69612857  0.42004853  0.74465051     0.14900
H1857       H  0.80018894  0.37818915  0.81772828     0.14900
C1858       C  0.81440292  0.45247804  0.79577114    -0.24000
H1859       H  0.66684522  0.35857972  0.74777152     0.05200
H1860       H  0.66829777  0.33584611  0.78334929     0.08400
H1861       H  0.70463636  0.31551094  0.75560096     0.08400
H1862       H  0.80451682  0.48489229  0.80182092     0.08400
H1863       H  0.83627985  0.45194028  0.77698865     0.08400
H1864       H  0.83244373  0.43796727  0.81399119     0.05100
C1865       C  0.58229428  0.26603440  0.04759966    -0.20700
C1866       C  0.57455098  0.22786302  0.03596887    -0.07200
C1867       C  0.59649751  0.19064084  0.04593181     0.13600
C1868       C  0.62487488  0.19259073  0.06800454    -0.20700
C1869       C  0.63240103  0.23084734  0.07977647    -0.07200
C1870       C  0.61188021  0.26814581  0.06875027     0.13600
C1871       C  0.61999476  0.31008338  0.07973173    -0.24100
H1872       H  0.56365170  0.29419991  0.04113136     0.14900
H1873       H  0.64139211  0.16407810  0.07596346     0.14900
C1874       C  0.58945039  0.14847507  0.03454954    -0.24000
H1875       H  0.59941528  0.33574943  0.06980463     0.05200
H1876       H  0.65268848  0.31575996  0.07427453     0.08400
H1877       H  0.61466050  0.31096716  0.10332776     0.08400
H1878       H  0.56728929  0.15040131  0.01664231     0.08400
H1879       H  0.57699073  0.12897352  0.05213040     0.08400
H1880       H  0.61949150  0.13279998  0.02643545     0.05100
C1881       C  0.91249233  0.20508732  0.05661374    -0.20700
C1882       C  0.92273148  0.23830749  0.03865198    -0.07200
C1883       C  0.90672459  0.27932348  0.04534028     0.13600
C1884       C  0.87904037  0.28590090  0.06878046    -0.20700
C1885       C  0.86788274  0.25268701  0.08653061    -0.07200
C1886       C  0.88567177  0.21161086  0.08065701     0.13600
C1887       C  0.87878297  0.17473970  0.10023182    -0.24100
H1888       H  0.92764467  0.17415370  0.05272077     0.14900
H1889       H  0.86607079  0.31746550  0.07318379     0.14900
C1890       C  0.92086431  0.31655800  0.02894359    -0.24000
H1891       H  0.89816797  0.14613123  0.09340506     0.05200
H1892       H  0.84589828  0.16746394  0.10002763     0.08400
H1893       H  0.88729218  0.18148493  0.12250162     0.08400
H1894       H  0.91141136  0.31570167  0.00634617     0.08400
H1895       H  0.95528906  0.31644376  0.02965994     0.08400
H1896       H  0.90692361  0.34642402  0.03806807     0.05100
C1897       C  0.58589222  0.20160219  0.95313327    -0.20700
C1898       C  0.57299238  0.23471720  0.97121182    -0.07200
C1899       C  0.59050953  0.27309578  0.96743955     0.13600
C1900       C  0.62405747  0.27559757  0.94799770    -0.20700
C1901       C  0.63746686  0.24236569  0.93017046    -0.07200
C1902       C  0.61573926  0.20608397  0.93125500     0.13600
C1903       C  0.61967855  0.17352322  0.90833899    -0.24100
H1904       H  0.56990997  0.17341289  0.95450586     0.14900
H1905       H  0.63773325  0.30459048  0.94543506     0.14900
C1906       C  0.57286122  0.31266743  0.98176170    -0.24000
H1907       H  0.58814805  0.16864854  0.90071592     0.05200
H1908       H  0.63394023  0.14337488  0.91709719     0.08400
H1909       H  0.63727401  0.18328460  0.88911714     0.08400
H1910       H  0.59652055  0.32386280  0.99589817     0.08400
H1911       H  0.54395255  0.30880638  0.99456462     0.08400
H1912       H  0.56476783  0.33702073  0.96506772     0.05100
C1913       C  0.91385249  0.27518836  0.95556635    -0.20700
C1914       C  0.92270553  0.23860604  0.97197713    -0.07200
C1915       C  0.90126935  0.20336336  0.96668336     0.13600
C1916       C  0.86910253  0.20674071  0.94674692    -0.20700
C1917       C  0.85981517  0.24375318  0.93085182    -0.07200
C1918       C  0.88259078  0.27825487  0.93525185     0.13600
C1919       C  0.87244343  0.31916680  0.91987640    -0.24100
H1920       H  0.93196609  0.30143439  0.95848877     0.14900
H1921       H  0.85120784  0.18043296  0.94349182     0.14900
C1922       C  0.91382872  0.16175076  0.98070508    -0.24000
H1923       H  0.89350727  0.34289806  0.92568719     0.05200
H1924       H  0.84037334  0.33096172  0.92633389     0.08400
H1925       H  0.87495643  0.31496842  0.89629033     0.08400
H1926       H  0.90805464  0.16350637  0.00420712     0.08400
H1927       H  0.94743900  0.15265657  0.97622538     0.08400
H1928       H  0.89605557  0.13688927  0.97232758     0.05100
C1929       C  0.87964274  0.52233197  0.26834906    -0.20700
C1930       C  0.87974495  0.52641363  0.29826948    -0.07200
C1931       C  0.84040207  0.53173380  0.31296704     0.13600
C1932       C  0.80331139  0.52794219  0.29795398    -0.20700
C1933       C  0.80320202  0.51911593  0.26823519    -0.07200
C1934       C  0.84270107  0.52038931  0.25306382     0.13600
C1935       C  0.84770670  0.51913269  0.22063237    -0.24100
H1936       H  0.90918823  0.52058969  0.25652002     0.14900
H1937       H  0.77416452  0.53269585  0.30988549     0.14900
C1938       C  0.83663776  0.54187158  0.34447147    -0.24000
H1939       H  0.88099181  0.51515581  0.21349099     0.05200
H1940       H  0.83782688  0.05216236  0.21280829     0.08400
H1941       H  0.83301729  0.49265959  0.21193257     0.08400
H1942       H  0.85268824  0.05651405  0.35410737     0.08400
H1943       H  0.85120397  0.51553575  0.35754977     0.08400
H1944       H  0.80358584  0.54743390  0.35194572     0.05100
C1945       C  0.67144565  0.00246291  0.31122962    -0.20700
C1946       C  0.64253408  0.03631564  0.30428689    -0.07200
C1947       C  0.65257138  0.06297922  0.28156746     0.13600
C1948       C  0.68977674  0.05406967  0.26557136    -0.20700
C1949       C  0.72161714  0.02151678  0.27280267    -0.07200
C1950       C  0.70833533  0.49616138  0.29620744     0.13600
C1951       C  0.73562744  0.45924326  0.30723238    -0.24100
H1952       H  0.66124366  0.48268401  0.32826343     0.14900
H1953       H  0.69158150  0.07251650  0.24613126     0.14900
C1954       C  0.62262107  0.09965072  0.27271946    -0.24000
H1955       H  0.72004704  0.43030930  0.30444094     0.05200
H1956       H  0.74297883  0.95942897  0.32985656     0.08400
H1957       H  0.76588409  0.45556354  0.29622327     0.08400
H1958       H  0.61702492  0.12134258  0.29093388     0.08400
H1959       H  0.58879753  0.58449039  0.26357540     0.08400
H1960       H  0.63493883  0.11756229  0.25422715     0.05100
C1961       C  0.74368210  0.09307359  0.18644799    -0.20700
C1962       C  0.74387499  0.13090063  0.20082756    -0.07200
C1963       C  0.75537517  0.12988491  0.22976065     0.13600
C1964       C  0.76461476  0.09156472  0.24386369    -0.20700
C1965       C  0.76191270  0.05233465  0.23070420    -0.07200
C1966       C  0.75428733  0.05391098  0.20029736     0.13600
C1967       C  0.76033057  0.01745160  0.18029648    -0.24100
H1968       H  0.73763071  0.09424462  0.16362942     0.14900
H1969       H  0.77070870  0.09238017  0.26660296     0.14900
C1970       C  0.75606068  0.16946195  0.24654071    -0.24000
H1971       H  0.77972731  0.02596998  0.16134555     0.05200
H1972       H  0.72968572  0.00991324  0.17252736     0.08400
H1973       H  0.77746710  0.98938112  0.18939037     0.08400
H1974       H  0.72511817  0.18773930  0.24565010     0.08400
H1975       H  0.78040167  0.18853413  0.23751436     0.08400
H1976       H  0.76308579  0.16295623  0.26952520     0.05100
C1977       C  0.78104174  0.39386885  0.23038126    -0.20700
C1978       C  0.74612778  0.38911729  0.21405076    -0.07200
C1979       C  0.71600570  0.42377507  0.21158510     0.13600
C1980       C  0.72218964  0.46190411  0.22482708    -0.20700
C1981       C  0.75926770  0.46901809  0.23919457    -0.07200
C1982       C  0.78885453  0.43218914  0.24278499     0.13600
C1983       C  0.82991110  0.42955612  0.25845999    -0.24100
H1984       H  0.80414739  0.36720522  0.23206879     0.14900
H1985       H  0.69812063  0.48753500  0.22270715     0.14900
C1986       C  0.67672066  0.42065235  0.19525955    -0.24000
H1987       H  0.84177345  0.39671537  0.26333313     0.05200
H1988       H  0.82794854  0.44414811  0.27969533     0.08400
H1989       H  0.85467301  0.44159625  0.24465428     0.08400
H1990       H  0.65996154  0.39460300  0.20435161     0.08400
H1991       H  0.68434562  0.41516521  0.17218165     0.08400
H1992       H  0.65535292  0.44971925  0.19662640     0.05100
C1993       C  0.76097201  0.51452375  0.25223091    -0.02800
C1994       C  0.96245582  0.73027909  0.02034855     0.01900
C1995       C  0.96367348  0.72967189  0.98993515     0.01900
C1996       C  0.50159497  0.73127581  0.97573366    -0.18600
C1997       C  0.53952676  0.73105118  0.98944648     0.01900
C1998       C  0.54039307  0.72718248  0.01956499     0.01900
C1999       C  0.50329403  0.72521645  0.03535502    -0.18600
H2000       H  0.50412430  0.72389718  0.05868098     0.03900
H2001       H  0.50107908  0.73360986  0.95242113     0.03900
C2002       C  0.74035250  0.48889924  0.75640923    -0.02800
C2003       C  0.49808160  0.74366290  0.74539007    -0.02800
C2004       C  0.77155367  0.96774480  0.97839192     0.01900
C2005       C  0.77202218  0.96135803  0.00852270     0.01900
C2006       C  0.77518738  0.49652327  0.02660625    -0.18600
C2007       C  0.77632778  0.53752286  0.01583093     0.01900
C2008       C  0.77249697  0.54405906  0.98573847     0.01900
C2009       C  0.76853528  0.51024292  0.96795410    -0.18600
H2010       H  0.76449444  0.51587187  0.94506116     0.03900
H2011       H  0.77653124  0.49095205  0.04964801     0.03900
O2012       O  0.82731033  0.75012092  0.88479328    -0.80500
O2013       O  0.69709563  0.66546701  0.82927751    -0.80500
O2014       O  0.77819824  0.68471945  0.88771670    -0.80500
O2015       O  0.82059686  0.71902762  0.81657671    -0.81300
O2016       O  0.71263193  0.67171976  0.88689517    -0.80600
O2017       O  0.82854609  0.78230571  0.82924884    -0.80500
O2018       O  0.76254523  0.66671869  0.81542119    -0.80500
O2019       O  0.79134838  0.74592422  0.92514768    -0.80500
C2020       C  0.82628607  0.74550889  0.91251468     1.09200
C2021       C  0.73017407  0.64801167  0.81773784     1.09100
C2022       C  0.74978372  0.66254559  0.89538832     1.09200
C2023       C  0.84315509  0.74872813  0.81738944     1.09100
O2024       O  0.74503481  0.82115563  0.83567631    -0.80500
O2025       O  0.66978444  0.75760382  0.88389144    -0.80600
O2026       O  0.74641901  0.80769635  0.89617487    -0.80500
O2027       O  0.70066170  0.73045980  0.79160709    -0.80500
O2028       O  0.66032438  0.75120830  0.82820832    -0.80500
O2029       O  0.80173906  0.83194718  0.87611365    -0.80500
O2030       O  0.76162030  0.78752608  0.79534663    -0.80500
O2031       O  0.71287405  0.73554953  0.91630363    -0.80500
Co2032     Co  0.78182572  0.78403878  0.85952680     1.51500
Co2033     Co  0.68852615  0.71359215  0.85674280     1.51700
Co2034     Co  0.76242679  0.74434008  0.89014390     1.51600
Co2035     Co  0.76062182  0.72686668  0.80746121     1.51500
O2036       O  0.74406473  0.73911883  0.84930790    -1.42400
C2037       C  0.75052021  0.82106725  0.80875504     1.09100
C2038       C  0.67613771  0.74768027  0.90951976     1.09200
C2039       C  0.77186238  0.83642695  0.89449104     1.09100
C2040       C  0.66461061  0.74399935  0.80183469     1.09100
O2041       O  0.82698271  0.81598907  0.17210719    -0.80500
O2042       O  0.74757959  0.68159816  0.11965772    -0.80500
O2043       O  0.77001504  0.69419049  0.18482362    -0.80500
O2044       O  0.81679701  0.73397810  0.11807186    -0.80500
O2045       O  0.70666880  0.68737143  0.17297362    -0.80600
O2046       O  0.82489555  0.80058817  0.11478483    -0.80500
O2047       O  0.76199453  0.71209506  0.07862911    -0.80500
O2048       O  0.82413686  0.75087548  0.18657191    -0.80500
C2049       C  0.84410286  0.78251471  0.18343779     1.09200
C2050       C  0.75765063  0.67883260  0.09247664     1.09100
C2051       C  0.73950789  0.67274248  0.18510883     1.09200
C2052       C  0.83769469  0.76285091  0.10910323     1.09100
O2053       O  0.73858938  0.83976468  0.11352275    -0.80500
O2054       O  0.66911187  0.76928986  0.16186329    -0.80600
O2055       O  0.76091333  0.81421015  0.20796297    -0.80500
O2056       O  0.69522736  0.75706088  0.10102563    -0.80500
O2057       O  0.66566240  0.70602190  0.12342136    -0.80500
O2058       O  0.74038552  0.85309669  0.17081220    -0.80500
O2059       O  0.76463860  0.79202668  0.08460058    -0.80500
O2060       O  0.70060716  0.75650214  0.20330111    -0.80500
Co2061     Co  0.78023489  0.82410779  0.14322464     1.51500
Co2062     Co  0.70990250  0.73011163  0.14105069     1.51700
Co2063     Co  0.76319051  0.75433967  0.19315981     1.51600
Co2064     Co  0.75716137  0.74487197  0.11197949     1.51500
O2065       O  0.75398153  0.76891966  0.15123408    -1.42400
C2066       C  0.74866068  0.82872168  0.08836862     1.09100
C2067       C  0.66740642  0.76717913  0.18911437     1.09200
C2068       C  0.74762774  0.84977135  0.19725702     1.09100
C2069       C  0.66659965  0.73167107  0.10248094     1.09100
O2070       O  0.58183542  0.48941869  0.66781577    -0.80500
O2071       O  0.98658810  0.93233592  0.60138859    -0.80500
O2072       O  0.50020141  0.93900099  0.69374713    -0.80500
O2073       O  0.53032460  0.99833827  0.58119665    -0.80500
O2074       O  0.97976351  0.90606461  0.65712911    -0.80600
O2075       O  0.58053116  0.48530334  0.61091863    -0.80500
O2076       O  0.45763097  0.97800409  0.56820851    -0.80500
O2077       O  0.53962667  0.00884436  0.70551976    -0.80500
C2078       C  0.57860431  0.49906165  0.69377256     1.09200
C2079       C  0.97610431  0.94027408  0.57499643     1.09100
C2080       C  0.99565069  0.90536666  0.68151350     1.09200
C2081       C  0.56863299  0.48866994  0.58554462     1.09100
O2082       O  0.53353755  0.56694955  0.60781924    -0.80500
O2083       O  0.91903233  0.97572459  0.67359988    -0.80600
O2084       O  0.97449042  0.56260833  0.68067535    -0.80500
O2085       O  0.91505141  0.50221014  0.61830895    -0.80500
O2086       O  0.90918148  0.93279200  0.62436482    -0.80500
O2087       O  0.53846574  0.57279741  0.66646398    -0.80500
O2088       O  0.96799727  0.55761399  0.59786654    -0.80500
O2089       O  0.94548370  0.50049390  0.71521369    -0.80500
Co2090     Co  0.55565840  0.52638033  0.63846921     1.51500
Co2091     Co  0.95748942  0.95746707  0.63758215     1.51700
Co2092     Co  0.48683192  0.49977066  0.68418019     1.51600
Co2093     Co  0.47686788  0.49654775  0.60451157     1.51500
O2094       O  0.50425339  0.49536057  0.64388596    -1.42400
C2095       C  0.49866770  0.57826492  0.59622959     1.09100
C2096       C  0.91215544  0.98862397  0.69979184     1.09200
C2097       C  0.50375787  0.58546175  0.67856067     1.09100
C2098       C  0.89466216  0.96759014  0.61347318     1.09100
O2099       O  0.48806461  0.60123824  0.33114827    -0.80500
O2100       O  0.92036700  0.95901939  0.38253140    -0.80500
O2101       O  0.95444151  0.50982714  0.29823910    -0.80500
O2102       O  0.52149822  0.54219904  0.41612194    -0.80500
O2103       O  0.92554744  0.02174415  0.34162694    -0.80600
O2104       O  0.49051609  0.58835236  0.38766076    -0.80500
O2105       O  0.95324606  0.50440817  0.40374821    -0.80500
O2106       O  0.01362808  0.56798947  0.29212772    -0.80500
C2107       C  0.49695630  0.60291938  0.30484360     1.09200
C2108       C  0.92473500  0.98002112  0.40483160     1.09100
C2109       C  0.92362370  0.01815198  0.31458813     1.09200
C2110       C  0.50198778  0.57758223  0.41245768     1.09100
O2111       O  0.57875449  0.55658787  0.38233652    -0.80500
O2112       O  0.96276371  0.93965392  0.33155394    -0.80600
O2113       O  0.58021484  0.00568717  0.31377414    -0.80500
O2114       O  0.52586384  0.95931244  0.42277506    -0.80500
O2115       O  0.00215183  0.93308098  0.38272591    -0.80500
O2116       O  0.57733847  0.57109408  0.32501305    -0.80500
O2117       O  0.57828929  0.98755025  0.38170848    -0.80500
O2118       O  0.52694205  0.94757857  0.31698951    -0.80500
Co2119     Co  0.53149477  0.57664339  0.35620468     1.51500
Co2120     Co  0.96519419  0.98219737  0.36243593     1.51700
Co2121     Co  0.51966658  0.00851829  0.30898600     1.51600
Co2122     Co  0.51814653  0.99435063  0.39056280     1.51500
O2123       O  0.51123062  0.02005992  0.35144343    -1.42400
C2124       C  0.59516992  0.51990545  0.38820319     1.09100
C2125       C  0.99561322  0.92382996  0.31896350     1.09200
C2126       C  0.59642076  0.53768464  0.31508836     1.09100
C2127       C  0.01593247  0.92809159  0.40859263     1.09100
C2128       C  0.00654022  0.79082146  0.50940881     0.01900
C2129       C  0.01955624  0.78311835  0.48057981     0.01900
C2130       C  0.02302665  0.74239552  0.47040734    -0.18600
C2131       C  0.01383310  0.70899431  0.48828730     0.01900
C2132       C  0.00220973  0.71672708  0.51705851     0.01900
C2133       C  0.99673367  0.75732285  0.52695562    -0.18600
H2134       H  0.98573523  0.76264523  0.54893177     0.03900
H2135       H  0.03090183  0.73687817  0.44787998     0.03900
C2136       C  0.78132723  0.48814897  0.51812026     0.01900
C2137       C  0.78976948  0.48778513  0.48798745     0.01900
C2138       C  0.75753917  0.99603985  0.46980650    -0.18600
C2139       C  0.71548270  0.50409404  0.47892191     0.01900
C2140       C  0.70676643  0.50296387  0.50874330     0.01900
C2141       C  0.73975887  0.49551399  0.52780743    -0.18600
H2142       H  0.73280573  0.49456072  0.55076055     0.03900
H2143       H  0.76370669  0.99827040  0.44678370     0.03900
C2144       C  0.50000753  0.77233809  0.25040807    -0.02800
C2145       C  0.96806864  0.88209926  0.28184822    -0.20700
C2146       C  0.99673628  0.88405135  0.30342533    -0.07200
C2147       C  0.53030366  0.85521534  0.30477040     0.13600
C2148       C  0.53110270  0.82030216  0.28680514    -0.20700
C2149       C  0.99948371  0.81268520  0.26717209    -0.07200
C2150       C  0.97212897  0.85016551  0.26165678     0.13600
C2151       C  0.95093278  0.86266581  0.23370170    -0.24100
H2152       H  0.94532618  0.90875526  0.27845555     0.14900
H2153       H  0.55679429  0.79661544  0.28864848     0.14900
C2154       C  0.56452374  0.85755278  0.32597121    -0.24000
H2155       H  0.95657052  0.89532959  0.22777722     0.05200
H2156       H  0.91670370  0.86156971  0.23621438     0.08400
H2157       H  0.46291102  0.84748091  0.21508684     0.08400
H2158       H  0.04977973  0.85715573  0.34892276     0.08400
H2159       H  0.58213838  0.88485944  0.32078871     0.08400
H2160       H  0.58703317  0.82924314  0.32550478     0.05100
C2161       C  0.99401288  0.69203169  0.24998294    -0.20700
C2162       C  0.49614491  0.72972723  0.26750834    -0.07200
C2163       C  0.49295581  0.72196146  0.29799477     0.13600
C2164       C  0.49174536  0.68056486  0.30847983    -0.20700
C2165       C  0.49368108  0.64557211  0.29056362    -0.07200
C2166       C  0.99275561  0.65100005  0.26081119     0.13600
C2167       C  0.98995530  0.61605305  0.24015459    -0.24100
H2168       H  0.99556440  0.69619308  0.22684239     0.14900
H2169       H  0.49096430  0.67539843  0.33156779     0.14900
C2170       C  0.49235535  0.75464620  0.32086871    -0.24000
H2171       H  0.98666026  0.62780995  0.21764201     0.05200
H2172       H  0.96230143  0.59912633  0.24587649     0.08400
H2173       H  0.52300481  0.59622386  0.24182809     0.08400
H2174       H  0.97274001  0.78128307  0.31549113     0.08400
H2175       H  0.52453189  0.76165556  0.32525033     0.08400
H2176       H  0.47943145  0.74329798  0.34166016     0.05100
C2177       C  0.52910711  0.60384648  0.45662224    -0.20700
C2178       C  0.49811414  0.60769388  0.43581338    -0.07200
C2179       C  0.97064659  0.64144678  0.43483884     0.13600
C2180       C  0.97346508  0.67172416  0.45554314    -0.20700
C2181       C  0.50362724  0.67092935  0.47555871    -0.07200
C2182       C  0.53322762  0.63579858  0.47587020     0.13600
C2183       C  0.57057946  0.63266600  0.49480820    -0.24100
H2184       H  0.55237548  0.57724339  0.45634795     0.14900
H2185       H  0.95156155  0.69942966  0.45536522     0.14900
C2186       C  0.93774521  0.64950173  0.41233490    -0.24000
H2187       H  0.59292112  0.60545483  0.48933497     0.05200
H2188       H  0.56056987  0.62778000  0.51736532     0.08400
H2189       H  0.58730306  0.66120042  0.49249855     0.08400
H2190       H  0.91860587  0.62284927  0.41109161     0.08400
H2191       H  0.95270797  0.65512470  0.39102228     0.08400
H2192       H  0.91623097  0.67762915  0.41713144     0.05100
C2193       C  0.55206742  0.88066252  0.44412969    -0.20700
C2194       C  0.02171171  0.88688317  0.42274789    -0.07200
C2195       C  0.99515275  0.85529675  0.41795083     0.13600
C2196       C  0.99628261  0.82103280  0.43686938    -0.20700
C2197       C  0.02424360  0.81691680  0.45952672    -0.07200
C2198       C  0.55358207  0.84556893  0.46219780     0.13600
C2199       C  0.58785223  0.83964689  0.48371969    -0.24100
H2200       H  0.57340430  0.90394005  0.44782187     0.14900
H2201       H  0.97410672  0.79802761  0.43469731     0.14900
C2202       C  0.96372190  0.85827782  0.39442161    -0.24000
H2203       H  0.61855371  0.83986552  0.47230916     0.05200
H2204       H  0.58796242  0.80956484  0.49568924     0.08400
H2205       H  0.58445430  0.86550988  0.49926118     0.08400
H2206       H  0.97967480  0.86092223  0.37312480     0.08400
H2207       H  0.94081064  0.88556936  0.39793180     0.08400
H2208       H  0.94607601  0.83027975  0.39407615     0.05100
C2209       C  0.67126599  0.97025949  0.44571407    -0.20700
C2210       C  0.68317009  0.50921509  0.45677730    -0.07200
C2211       C  0.66983264  0.54855783  0.44460356     0.13600
C2212       C  0.64283169  0.55082039  0.42134955    -0.20700
C2213       C  0.63013739  0.51468059  0.40884230    -0.07200
C2214       C  0.64719286  0.47517010  0.41935475     0.13600
C2215       C  0.64000446  0.93203685  0.40664583    -0.24100
H2216       H  0.68221169  0.94011441  0.45492908     0.14900
H2217       H  0.63134096  0.58139907  0.41318976     0.14900
C2218       C  0.68442021  0.58863715  0.45497785    -0.24000
H2219       H  0.65676186  0.90463763  0.41754939     0.05200
H2220       H  0.65170533  0.93294471  0.38399373     0.08400
H2221       H  0.60769465  0.42869263  0.40600985     0.08400
H2222       H  0.71165928  0.09560543  0.43363446     0.08400
H2223       H  0.70581834  0.58381801  0.47323707     0.08400
H2224       H  0.65718009  0.61006946  0.46187235     0.05100
C2225       C  0.86019433  0.50720197  0.47418825    -0.20700
C2226       C  0.83191787  0.97522427  0.47375709    -0.07200
C2227       C  0.83535621  0.94568197  0.45143977     0.13600
C2228       C  0.86599421  0.94805012  0.42973328    -0.20700
C2229       C  0.89482866  0.97811862  0.42998884    -0.07200
C2230       C  0.89124499  0.50885071  0.45238112     0.13600
C2231       C  0.92130778  0.54155248  0.45434664    -0.24100
H2232       H  0.85671495  0.53095713  0.49047283     0.14900
H2233       H  0.86667623  0.92642548  0.41214843     0.14900
C2234       C  0.80533968  0.91271407  0.44902470    -0.24000
H2235       H  0.91490926  0.56125952  0.47356038     0.05200
H2236       H  0.92512649  0.05704018  0.44035862     0.08400
H2237       H  0.95358748  0.52643863  0.45590051     0.08400
H2238       H  0.78683269  0.91866501  0.42931224     0.08400
H2239       H  0.78358544  0.91176869  0.46787106     0.08400
H2240       H  0.82306473  0.88153327  0.44761625     0.05100
C2241       C  0.61831537  0.53113877  0.56068929    -0.20700
C2242       C  0.59956254  0.49357921  0.56203212    -0.07200
C2243       C  0.61058438  0.46311130  0.54114059     0.13600
C2244       C  0.65305347  0.95756660  0.53049084    -0.20700
C2245       C  0.66425089  0.50514233  0.52158391    -0.07200
C2246       C  0.65024820  0.53749339  0.54051003     0.13600
C2247       C  0.66968533  0.57827979  0.53992938    -0.24100
H2248       H  0.60856852  0.55527698  0.57598758     0.14900
H2249       H  0.67045537  0.92985441  0.52199424     0.14900
C2250       C  0.60912922  0.91093105  0.55905779    -0.24000
H2251       H  0.65462120  0.60019640  0.55603570     0.05200
H2252       H  0.65360936  0.08245876  0.50439791     0.08400
H2253       H  0.70334286  0.57313657  0.54468280     0.08400
H2254       H  0.57762495  0.90851402  0.55111939     0.08400
H2255       H  0.59167481  0.40732787  0.56124122     0.08400
H2256       H  0.63041027  0.88599488  0.54889930     0.05100
C2257       C  0.81685625  0.01376543  0.55947904    -0.20700
C2258       C  0.81429917  0.97999100  0.54116982    -0.07200
C2259       C  0.83275743  0.94029830  0.54967964     0.13600
C2260       C  0.85638421  0.93620732  0.57484059    -0.20700
C2261       C  0.86040866  0.97055136  0.59248668    -0.07200
C2262       C  0.83801839  0.00914727  0.58547859     0.13600
C2263       C  0.83355577  0.04531993  0.60570872    -0.24100
H2264       H  0.79986092  0.04353613  0.55427394     0.14900
H2265       H  0.87313020  0.90635133  0.58005896     0.14900
C2266       C  0.82417326  0.40466652  0.53415265    -0.24000
H2267       H  0.79990532  0.05462362  0.60994500     0.05200
H2268       H  0.84795411  0.07224916  0.59580087     0.08400
H2269       H  0.82783678  0.54443881  0.62413021     0.08400
H2270       H  0.79365562  0.89813394  0.53078793     0.08400
H2271       H  0.83909064  0.37613451  0.54483463     0.08400
H2272       H  0.83809238  0.40680975  0.51219013     0.05100
C2273       C  0.52859223  0.64153085  0.57829822    -0.20700
C2274       C  0.49521046  0.61651754  0.57808561    -0.07200
C2275       C  0.96000990  0.63209550  0.56215931     0.13600
C2276       C  0.96328865  0.66427004  0.54184572    -0.20700
C2277       C  0.49888226  0.68406793  0.53939664    -0.07200
C2278       C  0.53131355  0.67455147  0.55890722     0.13600
C2279       C  0.57126541  0.69555083  0.55795282    -0.24100
H2280       H  0.55440656  0.63389889  0.59253500     0.14900
H2281       H  0.93699822  0.67478799  0.52862662     0.14900
C2282       C  0.91848553  0.61443286  0.56590952    -0.24000
H2283       H  0.59834936  0.67155611  0.55677464     0.05200
H2284       H  0.57336765  0.71383004  0.57772830     0.08400
H2285       H  0.57411851  0.71601777  0.53878286     0.08400
H2286       H  0.89423738  0.63133152  0.55239586     0.08400
H2287       H  0.40789171  0.60177803  0.57715091     0.08400
H2288       H  0.92098959  0.58127019  0.55954459     0.05100
C2289       C  0.97542268  0.86508407  0.51241239    -0.20700
C2290       C  0.00368306  0.83249486  0.52269231    -0.07200
C2291       C  0.52435341  0.83946721  0.54822368     0.13600
C2292       C  0.51302483  0.87428528  0.56455636    -0.20700
C2293       C  0.98764555  0.90693898  0.55382231    -0.07200
C2294       C  0.96783938  0.90283362  0.52736961     0.13600
C2295       C  0.93850325  0.93732144  0.51505256    -0.24100
H2296       H  0.95835129  0.86051008  0.49315789     0.14900
H2297       H  0.52800687  0.87600551  0.58503860     0.14900
C2298       C  0.55923479  0.80913769  0.55908063    -0.24000
H2299       H  0.92521334  0.92823363  0.49457486     0.05200
H2300       H  0.95547107  0.96530819  0.51064587     0.08400
H2301       H  0.91239449  0.94543770  0.53037516     0.08400
H2302       H  0.56978086  0.78532217  0.54313105     0.08400
H2303       H  0.54910863  0.79374799  0.57931672     0.08400
H2304       H  0.58680603  0.82599887  0.56345146     0.05100
C2305       C  0.61987558  0.74383541  0.22770987    -0.20700
C2306       C  0.62547647  0.77095100  0.20454125    -0.07200
C2307       C  0.59092667  0.79863661  0.19642754     0.13600
C2308       C  0.55189634  0.79751035  0.21124920    -0.20700
C2309       C  0.54449356  0.76834971  0.23373157    -0.07200
C2310       C  0.58153929  0.74244888  0.24294899     0.13600
C2311       C  0.58478944  0.71388874  0.26937570    -0.24100
H2312       H  0.64646623  0.72276025  0.23396242     0.14900
H2313       H  0.52686405  0.82019199  0.20509143     0.14900
C2314       C  0.59529278  0.83053565  0.17271099    -0.24000
H2315       H  0.56995189  0.68497882  0.26598289     0.05200
H2316       H  0.57260320  0.72979675  0.28898005     0.08400
H2317       H  0.61758345  0.70298168  0.27439295     0.08400
H2318       H  0.60216866  0.81462980  0.15203375     0.08400
H2319       H  0.62092734  0.84989312  0.17744749     0.08400
H2320       H  0.56625797  0.85162204  0.17021572     0.05100
C2321       C  0.88210985  0.78258682  0.22803725    -0.20700
C2322       C  0.88461084  0.78150535  0.19824378    -0.07200
C2323       C  0.92419387  0.77325579  0.18471636     0.13600
C2324       C  0.96053433  0.76799296  0.20153252    -0.20700
C2325       C  0.95887014  0.77227295  0.23192567    -0.07200
C2326       C  0.91752045  0.77732545  0.24510383     0.13600
C2327       C  0.90834660  0.77758005  0.27715347    -0.24100
H2328       H  0.85132925  0.78696743  0.23818521     0.14900
H2329       H  0.99007828  0.76003583  0.19059377     0.14900
C2330       C  0.92797082  0.76917529  0.15261217    -0.24000
H2331       H  0.87444036  0.78287460  0.28237105     0.05200
H2332       H  0.92213039  0.80322627  0.28751316     0.08400
H2333       H  0.91818061  0.74693713  0.28701960     0.08400
H2334       H  0.91466310  0.79846525  0.14201559     0.08400
H2335       H  0.91070611  0.74294870  0.14591021     0.08400
H2336       H  0.96097970  0.76298318  0.14517129     0.05100
C2337       C  0.79717459  0.63688773  0.05498856    -0.20700
C2338       C  0.76576189  0.63882199  0.07678501    -0.07200
C2339       C  0.74003985  0.60548040  0.07945167     0.13600
C2340       C  0.74508092  0.57309715  0.05949042    -0.20700
C2341       C  0.77541257  0.57209876  0.03705362    -0.07200
C2342       C  0.80330735  0.60346585  0.03592745     0.13600
C2343       C  0.84074149  0.60213479  0.01581653    -0.24100
H2344       H  0.81740352  0.66190149  0.05270407     0.14900
H2345       H  0.72389328  0.54883297  0.06094478     0.14900
C2346       C  0.70563873  0.60301777  0.10184874    -0.24000
H2347       H  0.86922761  0.60446271  0.02838495     0.05200
H2348       H  0.83714859  0.62890411  0.00037720     0.08400
H2349       H  0.84562180  0.57269439  0.00381501     0.08400
H2350       H  0.70100111  0.63023584  0.11587121     0.08400
H2351       H  0.71269702  0.57486846  0.11567580     0.08400
H2352       H  0.67573298  0.59993250  0.09114980     0.05100
C2353       C  0.72635359  0.92561426  0.04156833    -0.20700
C2354       C  0.76166070  0.92227203  0.02306217    -0.07200
C2355       C  0.78927764  0.88564266  0.02380291     0.13600
C2356       C  0.78125444  0.85390207  0.04366118    -0.20700
C2357       C  0.74870118  0.85945216  0.06442642    -0.07200
C2358       C  0.72079078  0.89598049  0.06334676     0.13600
C2359       C  0.68688574  0.90575201  0.08586909    -0.24100
H2360       H  0.70538586  0.95400331  0.04088654     0.14900
H2361       H  0.80282768  0.82600984  0.04454198     0.14900
C2362       C  0.82879905  0.88086787  0.00564836    -0.24000
H2363       H  0.66720134  0.93494670  0.08057156     0.05200
H2364       H  0.70088826  0.91019693  0.10697586     0.08400
H2365       H  0.66616701  0.88039308  0.08778997     0.08400
H2366       H  0.84748750  0.90758634  0.00882234     0.08400
H2367       H  0.82152231  0.87860110  0.98272364     0.08400
H2368       H  0.84829285  0.85181915  0.01134991     0.05100
C2369       C  0.80361792  0.58774254  0.94942243    -0.20700
C2370       C  0.77139431  0.58441239  0.97016216    -0.07200
C2371       C  0.73318677  0.60901804  0.96685207     0.13600
C2372       C  0.72719942  0.63382394  0.94203339    -0.20700
C2373       C  0.75776109  0.63362881  0.91992424    -0.07200
C2374       C  0.79694740  0.61101072  0.92395051     0.13600
C2375       C  0.83062338  0.60848121  0.90067849    -0.24100
H2376       H  0.83249823  0.56786978  0.95161849     0.14900
H2377       H  0.69807404  0.65313978  0.93986925     0.14900
C2378       C  0.69716613  0.60814602  0.98808763    -0.24000
H2379       H  0.85782219  0.58660481  0.90676804     0.05200
H2380       H  0.84226799  0.63939315  0.89649765     0.08400
H2381       H  0.81805617  0.59716586  0.88058637     0.08400
H2382       H  0.70379263  0.58636567  0.00639363     0.08400
H2383       H  0.66952167  0.59845073  0.97715413     0.08400
H2384       H  0.68942079  0.63987792  0.99674148     0.05100
C2385       C  0.73798556  0.90984241  0.95658473    -0.20700
C2386       C  0.77148906  0.93430050  0.95687574    -0.07200
C2387       C  0.80318711  0.92888678  0.93517450     0.13600
C2388       C  0.80032728  0.89916966  0.91387616    -0.20700
C2389       C  0.76799913  0.87267599  0.91439511    -0.07200
C2390       C  0.73610323  0.87880640  0.93600754     0.13600
C2391       C  0.70006436  0.85272771  0.93811449    -0.24100
H2392       H  0.71328693  0.91487766  0.97276894     0.14900
H2393       H  0.82502590  0.89507776  0.89763342     0.14900
C2394       C  0.84156600  0.95245147  0.93535788    -0.24000
H2395       H  0.67733299  0.86353900  0.95537666     0.05200
H2396       H  0.71165565  0.82001309  0.94344788     0.08400
H2397       H  0.68333618  0.85450398  0.91750275     0.08400
H2398       H  0.85692527  0.94750580  0.95638998     0.08400
H2399       H  0.83338498  0.98624847  0.93153105     0.08400
H2400       H  0.86463548  0.94168836  0.91830448     0.05100
C2401       C  0.00036306  0.62530943  0.72431358    -0.20700
C2402       C  0.50037228  0.62622396  0.69423681    -0.07200
C2403       C  0.49901188  0.66571575  0.68026745     0.13600
C2404       C  0.49907635  0.70264294  0.69647708    -0.20700
C2405       C  0.50121719  0.70200850  0.72702469    -0.07200
C2406       C  0.00319966  0.66106293  0.74090147     0.13600
C2407       C  0.00785244  0.65240589  0.77274372    -0.24100
H2408       H  0.00011965  0.59511694  0.73508055     0.14900
H2409       H  0.49578361  0.73200769  0.68481822     0.14900
C2410       C  0.49678820  0.66892195  0.64808658    -0.24000
H2411       H  0.03387042  0.62777450  0.77614486     0.05200
H2412       H  0.97865113  0.64121843  0.78194109     0.08400
H2413       H  0.01564830  0.67920673  0.78504936     0.08400
H2414       H  0.46874836  0.65487186  0.64086275     0.08400
H2415       H  0.52513738  0.65197061  0.63849773     0.08400
H2416       H  0.49510705  0.70179314  0.64015686     0.05100
C2417       C  0.52651759  0.79392534  0.70752604    -0.20700
C2418       C  0.99475677  0.78620213  0.72798055    -0.07200
C2419       C  0.96328644  0.82147835  0.73209429     0.13600
C2420       C  0.96811472  0.85976157  0.71791394    -0.20700
C2421       C  0.99977996  0.86521192  0.69789333    -0.07200
C2422       C  0.52933023  0.83244373  0.69271763     0.13600
C2423       C  0.56603293  0.83854382  0.67290009    -0.24100
H2424       H  0.55190891  0.76979439  0.70454163     0.14900
H2425       H  0.94500755  0.88614856  0.72122413     0.14900
C2426       C  0.92313169  0.82290563  0.75015339    -0.24000
H2427       H  0.58846103  0.81019126  0.67214814     0.05200
H2428       H  0.58267092  0.86479834  0.68045443     0.08400
H2429       H  0.55509038  0.84582079  0.65077321     0.08400
H2430       H  0.92777271  0.81316641  0.77272470     0.08400
H2431       H  0.89993720  0.80581129  0.73946708     0.08400
H2432       H  0.90723007  0.85490645  0.75200915     0.05100
C2433       C  0.57744196  0.71902758  0.75171733    -0.20700
C2434       C  0.54213803  0.74627959  0.76067179    -0.07200
C2435       C  0.55185466  0.77826313  0.77998726     0.13600
C2436       C  0.59203355  0.77734332  0.79202163    -0.20700
C2437       C  0.62524129  0.74778506  0.78438190    -0.07200
C2438       C  0.61751413  0.71914732  0.76317102     0.13600
C2439       C  0.65120902  0.68739199  0.75281048    -0.24100
H2440       H  0.57496809  0.69713471  0.73481146     0.14900
H2441       H  0.59753911  0.80048673  0.80773141     0.14900
C2442       C  0.52212129  0.81504643  0.78859390    -0.24000
H2443       H  0.64029804  0.66673066  0.73634027     0.05200
H2444       H  0.66235083  0.66736106  0.77122839     0.08400
H2445       H  0.67698152  0.70379574  0.74293561     0.08400
H2446       H  0.51797801  0.81537202  0.81237235     0.08400
H2447       H  0.49123551  0.81487308  0.77955108     0.08400
H2448       H  0.53503986  0.84438394  0.78132165     0.05100
C2449       C  0.96030121  0.74188603  0.79671018    -0.20700
C2450       C  0.95960961  0.73896351  0.76624259    -0.07200
C2451       C  0.91976182  0.73203027  0.75456558     0.13600
C2452       C  0.88345564  0.73530180  0.77222016    -0.20700
C2453       C  0.88416061  0.74442912  0.80134865    -0.07200
C2454       C  0.92326290  0.74531251  0.81412424     0.13600
C2455       C  0.92594165  0.74842770  0.84622743    -0.24100
H2456       H  0.98961101  0.74213977  0.80726598     0.14900
H2457       H  0.85350076  0.73195827  0.76287606     0.14900
C2458       C  0.91292920  0.72480218  0.72304227    -0.24000
H2459       H  0.95872950  0.74817637  0.85305726     0.05200
H2460       H  0.91218708  0.72152729  0.85687346     0.08400
H2461       H  0.90852124  0.77781327  0.85356605     0.08400
H2462       H  0.92754670  0.74803684  0.70918690     0.08400
H2463       H  0.87933310  0.72780592  0.71781812     0.08400
H2464       H  0.92479817  0.69257439  0.71734599     0.05100
C2465       C  0.83858643  0.96452748  0.70265995    -0.20700
C2466       C  0.86763030  0.99108075  0.71235247    -0.07200
C2467       C  0.85473233  0.52048156  0.73550004     0.13600
C2468       C  0.81355371  0.51987575  0.74695370    -0.20700
C2469       C  0.78184674  0.99278729  0.73661757    -0.07200
C2470       C  0.79677954  0.96494908  0.71398218     0.13600
C2471       C  0.77082399  0.93409561  0.70090616    -0.24100
H2472       H  0.84878989  0.94240103  0.68610480     0.14900
H2473       H  0.80685509  0.53971206  0.76512711     0.14900
C2474       C  0.88167499  0.55245521  0.74627888    -0.24000
H2475       H  0.78537371  0.90192320  0.70483167     0.05200
H2476       H  0.77375295  0.43897336  0.67839129     0.08400
H2477       H  0.73861540  0.93575086  0.70926075     0.08400
H2478       H  0.89265396  0.57151831  0.72791913     0.08400
H2479       H  0.90664887  0.03890164  0.75437610     0.08400
H2480       H  0.86445717  0.57413006  0.76165305     0.05100
C2481       C  0.69524380  0.50508213  0.71061266    -0.20700
C2482       C  0.69679019  0.49490307  0.74013465    -0.07200
C2483       C  0.65653598  0.49156540  0.75467024     0.13600
C2484       C  0.61936859  0.49348922  0.73905571    -0.20700
C2485       C  0.61895153  0.50028130  0.70953187    -0.07200
C2486       C  0.65762384  0.50762484  0.69526208     0.13600
C2487       C  0.65713448  0.02080700  0.66374981    -0.24100
H2488       H  0.72163268  0.01223683  0.69872703     0.14900
H2489       H  0.58995324  0.48916879  0.75006532     0.14900
C2490       C  0.65041717  0.48552538  0.78674019    -0.24000
H2491       H  0.68847327  0.02946580  0.65676556     0.05200
H2492       H  0.63729118  0.54666634  0.65912272     0.08400
H2493       H  0.65044716  0.99409734  0.65051860     0.08400
H2494       H  0.66833571  0.45711135  0.79482195     0.08400
H2495       H  0.61678285  0.98373042  0.79342691     0.08400
H2496       H  0.65746268  0.51372992  0.79794926     0.05100
C2497       C  0.72849406  0.57062799  0.82036764    -0.20700
C2498       C  0.73031265  0.60725142  0.80377662    -0.07200
C2499       C  0.73463657  0.60425935  0.77374873     0.13600
C2500       C  0.73253401  0.56594023  0.76110962    -0.20700
C2501       C  0.73431729  0.52762540  0.77685660    -0.07200
C2502       C  0.73123363  0.53068953  0.80780441     0.13600
C2503       C  0.72789672  0.49522301  0.82926210    -0.24100
H2504       H  0.72572344  0.57319978  0.84357596     0.14900
H2505       H  0.73448720  0.56553658  0.73780814     0.14900
C2506       C  0.74450472  0.63984345  0.75386508    -0.24000
H2507       H  0.70027894  0.50247935  0.84372995     0.05200
H2508       H  0.75599411  0.49159688  0.84271634     0.08400
H2509       H  0.72326796  0.46522959  0.82000827     0.08400
H2510       H  0.77646609  0.63303671  0.74456842     0.08400
H2511       H  0.74309493  0.67030498  0.76445722     0.08400
H2512       H  0.72261004  0.64249958  0.73578992     0.05100
C2513       C  0.71708737  0.91401428  0.76144921    -0.20700
C2514       C  0.74431966  0.94424225  0.76944483    -0.07200
C2515       C  0.77789967  0.92912685  0.78769248     0.13600
C2516       C  0.77822292  0.88902465  0.80036717    -0.20700
C2517       C  0.74886528  0.86163431  0.79363053    -0.07200
C2518       C  0.71875712  0.87368015  0.77335690     0.13600
C2519       C  0.68752569  0.84435094  0.76485022    -0.24100
H2520       H  0.69361231  0.92099663  0.74556922     0.14900
H2521       H  0.80241336  0.87832832  0.81530393     0.14900
C2522       C  0.81413602  0.95355955  0.79427079    -0.24000
H2523       H  0.66528840  0.85889316  0.74891229     0.05200
H2524       H  0.66922897  0.83516536  0.78412773     0.08400
H2525       H  0.70400543  0.81601115  0.75515298     0.08400
H2526       H  0.80393687  0.98582310  0.80049846     0.08400
H2527       H  0.83577648  0.95338969  0.77537974     0.08400
H2528       H  0.83258427  0.93918778  0.81235113     0.05100
C2529       C  0.58577517  0.76648613  0.04767370    -0.20700
C2530       C  0.57831581  0.72819888  0.03608463    -0.07200
C2531       C  0.60058251  0.69112191  0.04597733     0.13600
C2532       C  0.62893659  0.69331712  0.06798804    -0.20700
C2533       C  0.63625513  0.73168294  0.07961946    -0.07200
C2534       C  0.61566460  0.76884007  0.06854835     0.13600
C2535       C  0.62434772  0.81084738  0.07903033    -0.24100
H2536       H  0.56684435  0.79450767  0.04136091     0.14900
H2537       H  0.64560156  0.66491816  0.07601315     0.14900
C2538       C  0.59390851  0.64885788  0.03460840    -0.24000
H2539       H  0.60377752  0.83649167  0.06907739     0.05200
H2540       H  0.65702740  0.81598648  0.07307662     0.08400
H2541       H  0.61962536  0.81221672  0.10267893     0.08400
H2542       H  0.57150740  0.65054020  0.01685377     0.08400
H2543       H  0.58196289  0.62912101  0.05224871     0.08400
H2544       H  0.62400797  0.63358056  0.02629679     0.05100
C2545       C  0.91244993  0.70534982  0.05551348    -0.20700
C2546       C  0.92458859  0.73856437  0.03838880    -0.07200
C2547       C  0.91107679  0.77987017  0.04613420     0.13600
C2548       C  0.88338103  0.78681298  0.06961019    -0.20700
C2549       C  0.87092833  0.75356003  0.08685336    -0.07200
C2550       C  0.88695686  0.71218919  0.08014103     0.13600
C2551       C  0.87999633  0.67514064  0.09953388    -0.24100
H2552       H  0.92582885  0.67400775  0.05081703     0.14900
H2553       H  0.87192821  0.81857729  0.07468434     0.14900
C2554       C  0.92807185  0.81671979  0.03093293    -0.24000
H2555       H  0.89861718  0.64635628  0.09221112     0.05200
H2556       H  0.84693092  0.66849442  0.09983540     0.08400
H2557       H  0.88950423  0.68119560  0.12168852     0.08400
H2558       H  0.91967836  0.81740240  0.00805170     0.08400
H2559       H  0.96254339  0.81455551  0.03249735     0.08400
H2560       H  0.91531148  0.84673921  0.04044276     0.05100
C2561       C  0.58892676  0.70278971  0.95236785    -0.20700
C2562       C  0.57686386  0.73527774  0.97118486    -0.07200
C2563       C  0.59483641  0.77349993  0.96778159     0.13600
C2564       C  0.62812797  0.77611666  0.94815452    -0.20700
C2565       C  0.64074861  0.74348639  0.92966494    -0.07200
C2566       C  0.61830397  0.70770780  0.93024358     0.13600
C2567       C  0.62114390  0.67617641  0.90666841    -0.24100
H2568       H  0.57253673  0.67483242  0.95336664     0.14900
H2569       H  0.64206645  0.80504314  0.94589102     0.14900
C2570       C  0.57774041  0.81291336  0.98249892    -0.24000
H2571       H  0.58929383  0.67226653  0.89920296     0.05200
H2572       H  0.63519164  0.64554204  0.91477739     0.08400
H2573       H  0.63861590  0.68631958  0.88749117     0.08400
H2574       H  0.60157348  0.82343271  0.99679690     0.08400
H2575       H  0.54866110  0.80917244  0.99511384     0.08400
H2576       H  0.57002973  0.83773385  0.96604776     0.05100
C2577       C  0.91640339  0.77092339  0.95726818    -0.20700
C2578       C  0.92646486  0.73301103  0.97181720    -0.07200
C2579       C  0.90666714  0.69760510  0.96430227     0.13600
C2580       C  0.87485609  0.70187105  0.94398188    -0.20700
C2581       C  0.86411823  0.74026604  0.92995223    -0.07200
C2582       C  0.88518399  0.77510466  0.93682158     0.13600
C2583       C  0.87327312  0.81736885  0.92383674    -0.24100
H2584       H  0.93357369  0.79734485  0.96164539     0.14900
H2585       H  0.85817945  0.67530198  0.93920225     0.14900
C2586       C  0.92021460  0.65523302  0.97688747    -0.24000
H2587       H  0.89280790  0.84132061  0.93152153     0.05200
H2588       H  0.84061078  0.82682350  0.93040719     0.08400
H2589       H  0.87659688  0.81621439  0.90006816     0.08400
H2590       H  0.91544948  0.65552767  0.00055997     0.08400
H2591       H  0.95377229  0.64692421  0.97167706     0.08400
H2592       H  0.90232864  0.63069825  0.96814170     0.05100
C2593       C  0.88200718  0.02205017  0.26988604    -0.20700
C2594       C  0.88202696  0.02275870  0.29997430    -0.07200
C2595       C  0.84270629  0.02507581  0.31476215     0.13600
C2596       C  0.80566707  0.02379777  0.29924259    -0.20700
C2597       C  0.80561860  0.01805364  0.26912079    -0.07200
C2598       C  0.84521214  0.02082177  0.25428505     0.13600
C2599       C  0.85060525  0.02170909  0.22186162    -0.24100
H2600       H  0.91154503  0.02220979  0.25818964     0.14900
H2601       H  0.77660865  0.02724963  0.31130069     0.14900
C2602       C  0.83888957  0.02822805  0.34703803    -0.24000
H2603       H  0.88396152  0.01801011  0.21486801     0.05200
H2604       H  0.83475622  0.54894433  0.21074379     0.08400
H2605       H  0.83593664  0.99590245  0.21224112     0.08400
H2606       H  0.85188671  0.57068278  0.34841858     0.08400
H2607       H  0.85483091  0.99994168  0.35730289     0.08400
H2608       H  0.80587547  0.03056282  0.35483608     0.05100
C2609       C  0.66920382  0.50351934  0.31075383    -0.20700
C2610       C  0.63966683  0.53630528  0.30289035    -0.07200
C2611       C  0.64907820  0.56194328  0.27946865     0.13600
C2612       C  0.68653425  0.55322978  0.26384556    -0.20700
C2613       C  0.71908456  0.52199619  0.27204945    -0.07200
C2614       C  0.71036233  0.99482658  0.29640136     0.13600
C2615       C  0.73694087  0.95679648  0.30660113    -0.24100
H2616       H  0.66310666  0.98095002  0.32823384     0.14900
H2617       H  0.68812495  0.57070272  0.24394570     0.14900
C2618       C  0.61819173  0.59709146  0.26946717    -0.24000
H2619       H  0.72050136  0.92851656  0.30337582     0.05200
H2620       H  0.74128217  0.46299551  0.33044018     0.08400
H2621       H  0.76715420  0.95263093  0.29543493     0.08400
H2622       H  0.61167688  0.61986288  0.28695561     0.08400
H2623       H  0.59256917  0.08867853  0.26644125     0.08400
H2624       H  0.63000045  0.61419725  0.25041995     0.05100
C2625       C  0.74233475  0.59474119  0.18629503    -0.20700
C2626       C  0.74297078  0.63224714  0.20091826    -0.07200
C2627       C  0.75263531  0.63088437  0.23012891     0.13600
C2628       C  0.76126652  0.59237441  0.24403083    -0.20700
C2629       C  0.75936326  0.55327445  0.23039665    -0.07200
C2630       C  0.75177314  0.55532678  0.20000275     0.13600
C2631       C  0.75618821  0.51893552  0.17995944    -0.24100
H2632       H  0.73670653  0.59634679  0.16343553     0.14900
H2633       H  0.76630594  0.59294221  0.26689383     0.14900
C2634       C  0.75187999  0.67025953  0.24732602    -0.24000
H2635       H  0.77409808  0.52731539  0.16027380     0.05200
H2636       H  0.72491700  0.51144838  0.17337051     0.08400
H2637       H  0.77413275  0.49101873  0.18862460     0.08400
H2638       H  0.72074656  0.68805467  0.24590572     0.08400
H2639       H  0.77616583  0.68995016  0.23901450     0.08400
H2640       H  0.75791581  0.66348871  0.27041891     0.05100
C2641       C  0.78400218  0.89407910  0.22952929    -0.20700
C2642       C  0.74820335  0.88903279  0.21428291    -0.07200
C2643       C  0.71739285  0.92317355  0.21282380     0.13600
C2644       C  0.72404142  0.96148187  0.22566507    -0.20700
C2645       C  0.76157832  0.96865061  0.23950123    -0.07200
C2646       C  0.79173934  0.93215238  0.24217785     0.13600
C2647       C  0.83305271  0.92954763  0.25745471    -0.24100
H2648       H  0.80758501  0.86775840  0.23037671     0.14900
H2649       H  0.69972017  0.98695329  0.22404531     0.14900
C2650       C  0.67675971  0.91906235  0.19836575    -0.24000
H2651       H  0.84610017  0.89673883  0.26108194     0.05200
H2652       H  0.83066177  0.94245521  0.27924588     0.08400
H2653       H  0.85709349  0.94333642  0.24397495     0.08400
H2654       H  0.66104831  0.89323879  0.20881428     0.08400
H2655       H  0.68236264  0.91255586  0.17520294     0.08400
H2656       H  0.65530269  0.94803436  0.20000872     0.05100
loop_ 
_geom_bond_atom_site_label_1 
_geom_bond_atom_site_label_2 
_geom_bond_distance 
_geom_bond_site_symmetry_2 
_ccdc_geom_bond_type 
C1          C621   1.612       .  S
C1          C637   1.589       .  S
C1         C1269   1.589       .  S
C1         C1317   1.603   1_545  S
C2            C3   1.415   1_554  A
C2         C1335   1.395       .  A
C2          C554   1.468       .  S
C3         C1332   1.396       .  A
C3          C586   1.477       .  S
C4            C5   1.395   1_655  A
C4         C1331   1.396       .  A
C4            H9   1.085       .  S
C5            C6   1.405   1_556  A
C5          C570   1.466       .  S
C6            C7   1.391   1_455  A
C6          C538   1.468       .  S
C7         C1330   1.396       .  A
C7            H8   1.086       .  S
C10         C490   1.611       .  S
C10         C509   1.583   1_565  S
C10        C1141   1.634       .  S
C10        C1186   1.583       .  S
C11         C413   1.602       .  S
C11         C442   1.617   1_655  S
C11        C1754   1.603       .  S
C11        C1786   1.588       .  S
C12          C13   1.414   1_556  A
C12         C681   1.386       .  A
C12         C394   1.485       .  S
C13         C678   1.413       .  A
C13         C362   1.481       .  S
C14          C15   1.404   1_565  A
C14         C677   1.410       .  A
C14          H19   1.085       .  S
C15          C16   1.416   1_554  A
C15         C349   1.495       .  S
C16          C17   1.397       .  A
C16         C378   1.471       .  S
C17         C676   1.388   1_545  A
C17          H18   1.086       .  S
O20          C28   1.296       .  A
O20         Co40   2.114       .  S
O21          C29   1.271       .  A
O21         Co41   2.034       .  S
O22          C30   1.253       .  A
O22         Co42   1.944       .  S
O23          C31   1.256       .  A
O23         Co43   1.981       .  S
O24          C30   1.275       .  A
O24         Co41   2.035       .  S
O25          C31   1.268       .  A
O25         Co40   2.028       .  S
O26          C29   1.253       .  A
O26         Co43   1.959       .  S
O27          C28   1.254       .  A
O27         Co42   1.900       .  S
C28         C589   1.476       .  S
C29         C506   1.482       .  S
C30         C381   1.465       .  S
C31         C461   1.495       .  S
O32          C45   1.261       .  A
O32         Co40   1.953       .  S
O33          C46   1.247       .  A
O33         Co41   1.965       .  S
O34          C47   1.292       .  A
O34         Co42   2.079       .  S
O35          C48   1.284       .  A
O35         Co43   2.083       .  S
O36          C48   1.255       .  A
O36         Co41   1.959       .  S
O37          C47   1.269       .  A
O37         Co40   1.910       .  S
O38          C45   1.276       .  A
O38         Co43   2.023       .  S
O39          C46   1.257       .  A
O39         Co42   2.015       .  S
Co40         O44   2.047       .  S
Co41         O44   2.055       .  S
Co42         O44   2.021       .  S
Co43         O44   2.041       .  S
C45         C525   1.466       .  S
C46         C573   1.470       .  S
C47         C397   1.498       .  S
C48         C445   1.519       .  S
O49          C57   1.272       .  A
O49         Co69   2.035       .  S
O50          C58   1.300       .  A
O50         Co70   2.131       .  S
O51          C59   1.250       .  A
O51         Co71   1.972       .  S
O52          C60   1.257       .  A
O52         Co72   1.950       .  S
O53          C59   1.265       .  A
O53         Co70   2.029       .  S
O54          C60   1.276       .  A
O54         Co69   2.022       .  S
O55          C58   1.254       .  A
O55         Co72   1.888       .  S
O56          C57   1.259       .  A
O56         Co71   1.975       .  S
C57         C330   1.487       .  S
C58         C346   1.489       .  S
C59         C634   1.490       .  S
C60         C557   1.480       .  S
O61          C74   1.256       .  A
O61         Co69   1.978       .  S
O62          C75   1.266       .  A
O62         Co70   1.978       .  S
O63          C76   1.281       .  A
O63         Co71   2.060       .  S
O64          C77   1.291       .  A
O64         Co72   2.079       .  S
O65          C77   1.268       .  A
O65         Co70   1.907       .  S
O66          C76   1.260       .  A
O66         Co69   1.971       .  S
O67          C74   1.257       .  A
O67         Co72   1.990       .  S
O68          C75   1.289       .  A
O68         Co71   2.059       .  S
Co69         O73   2.062       .  S
Co70         O73   2.057       .  S
Co71         O73   2.019       .  S
Co72         O73   1.995       .  S
C74         C365   1.478       .  S
C75         C314   1.511       .  S
C76         C650   1.509       .  S
C77         C541   1.477       .  S
O78          C86   1.252   1_565  A
O78         Co98   1.950   1_565  S
O79          C87   1.293       .  A
O79         Co99   2.035       .  S
O80        C1416   1.273   1_455  A
O80        Co764   2.029   1_455  S
O81         C753   1.257       .  A
O81        Co765   2.027   1_455  S
O82          C88   1.255       .  A
O82         Co99   1.953       .  S
O83          C89   1.248       .  A
O83         Co98   1.965   1_565  S
O84        C1415   1.286       .  A
O84        Co765   1.936       .  S
O85         C750   1.295       .  A
O85        Co764   2.089   1_455  S
C86         C493   1.521       .  S
C86         O749   1.293       .  A
C87         C301   1.481       .  S
C87        O1412   1.286       .  A
C88         C429   1.483       .  S
C88        O1408   1.272       .  A
C89         C250   1.468       .  S
C89         O745   1.255       .  A
O90         C103   1.281   1_455  A
O90         Co98   2.025       .  S
O91         C104   1.301       .  A
O91         Co99   2.104       .  S
O92        C1433   1.275       .  A
O92       Co1428   2.001       .  S
O93         C770   1.291       .  A
O93       Co1429   2.056       .  S
O94         C106   1.273       .  A
O94         Co99   1.939       .  S
O95         C105   1.275       .  A
O95         Co98   2.033       .  S
O96        C1431   1.260       .  A
O96       Co1429   1.932   1_545  S
O97         C768   1.286       .  A
O97       Co1428   1.921   1_565  S
Co98        O102   2.019   1_545  S
Co99       O2094   2.042       .  S
Co100       O744   2.029   1_645  S
Co100       O749   2.088   1_655  S
Co100      O1420   2.003       .  S
Co100      O1425   1.925   1_545  S
Co100       O102   1.949   1_645  S
Co101       O745   2.020   1_655  S
Co101       O748   1.936       .  S
Co101      O1421   2.052       .  S
Co101      O1424   1.932   1_565  S
Co101       O102   2.047   1_655  S
O102      Co2091   2.044   1_455  S
C103        C282   1.481       .  S
C103       O1424   1.259       .  A
C104        C474   1.518       .  S
C104        O761   1.286       .  A
C105        C410   1.508   1_455  S
C105       O1420   1.275   1_455  A
C106        C269   1.494       .  S
C106        O757   1.288       .  A
O107        C115   1.251       .  A
O107       Co127   1.944   1_655  S
O108        C116   1.269       .  A
O108       Co128   1.900       .  S
O109        C781   1.285       .  A
O109      Co2121   2.042       .  S
O110        C118   1.258       .  A
O110       Co794   1.988   1_545  S
O111        C117   1.269       .  A
O111       Co128   1.975       .  S
O112        C118   1.253   1_655  A
O112       Co127   1.965   1_655  S
O113        C780   1.290   1_545  A
O113      Co2122   2.101   1_545  S
O114       C1443   1.280       .  A
O114      Co2121   2.070       .  S
C115        C173   1.508       .  S
C115       O1442   1.280   1_655  A
C116        C237   1.498       .  S
C116        O777   1.291       .  A
C117        C602   1.513       .  S
C117        O773   1.286       .  A
C118        C186   1.465   1_455  S
O119        C132   1.278       .  A
O119       Co127   2.034       .  S
O120        C133   1.266       .  A
O120       Co128   2.019       .  S
O121        C798   1.257       .  A
O121       Co129   1.962       .  S
O122       C1463   1.262       .  A
O122       Co130   1.857       .  S
O123        C135   1.295       .  A
O123       Co128   2.110       .  S
O124        C134   1.275       .  A
O124       Co127   2.037       .  S
O125        C796   1.265       .  A
O125       Co130   1.972       .  S
O126       C1461   1.256   1_455  A
O126       Co129   1.980       .  S
Co127       O795   2.032       .  S
Co128      O1459   2.015       .  S
Co129      O2101   2.042   1_455  S
Co129      O2106   2.064       .  S
Co129       O131   2.030       .  S
Co130       O774   1.994       .  S
Co130      O2105   2.101   1_455  S
Co130       O131   1.995       .  S
O131       Co791   2.026       .  S
O131      Co1456   2.014   1_455  S
C132        C221   1.495       .  S
C132        O789   1.261   1_545  A
C133        C154   1.485       .  S
C133       O1454   1.256       .  A
C134        C618   1.483       .  S
C134        O785   1.255       .  A
C135        C202   1.468       .  S
C135       O1450   1.263       .  A
C136        C137   1.413       .  A
C136        C141   1.400       .  A
C136        C298   1.481       .  S
C137        C138   1.395       .  A
C137        C205   1.467       .  S
C138        C139   1.393       .  A
C138        H143   1.086       .  S
C139        C140   1.402       .  A
C139       C1517   1.468       .  S
C140        C141   1.391       .  A
C140       C1613   1.465       .  S
C141        H142   1.085       .  S
C144        C145   1.419       .  A
C144        C149   1.401       .  A
C144        C930   1.489       .  S
C145        C810   1.405       .  A
C145        C898   1.483       .  S
C146        C809   1.409       .  A
C146        C811   1.395       .  A
C146        H151   1.085       .  S
C147        C148   1.412       .  A
C147        C810   1.395       .  A
C147        C218   1.481   1_565  S
C148        C149   1.402       .  A
C148        C253   1.479       .  S
C149        H150   1.086       .  S
C152        C170   1.583       .  S
C152        C317   1.609   1_655  S
C152       C1485   1.597       .  S
C152       C1661   1.595       .  S
C153        C154   1.390       .  A
C153        C158   1.406       .  A
C153        H160   1.086       .  S
C154       C1483   1.411       .  A
C155        C162   1.507       .  S
C155        C156   1.412       .  A
C155       C1482   1.412   1_455  A
C156       C1485   1.416   1_455  A
C156        H161   1.073       .  S
C157       C1480   1.593       .  S
C157        C158   1.452       .  A
C157       C1484   1.416       .  A
C158        C159   1.516       .  S
C159        H163   1.112       .  S
C159        H164   1.109       .  S
C159       H1493   1.098       .  S
C162        H167   1.109       .  S
C162        H168   1.111       .  S
C162       H1494   1.110       .  S
H165       C1487   1.098       .  S
H166       C1490   1.110       .  S
C169        C174   1.410       .  A
C169       C1498   1.432       .  A
C169        H176   1.082       .  S
C170        C171   1.437       .  A
C170       C1497   1.432       .  A
C171        C178   1.512       .  S
C171        C172   1.412       .  A
C172        C173   1.412       .  A
C172        H177   1.084       .  S
C173       C1502   1.407       .  A
C174        C175   1.506       .  S
C174       C1501   1.404       .  A
C175        H179   1.111       .  S
C175        H180   1.111       .  S
C175       H1509   1.109       .  S
C178        H183   1.106   1_655  S
C178        H184   1.111       .  S
C178       H1510   1.098       .  S
H181       C1503   1.107   1_455  S
H182       C1506   1.097       .  S
C185        C186   1.403   1_455  A
C185        C190   1.395       .  A
C185        H192   1.085       .  S
C186       C1515   1.416       .  A
C187        C194   1.512       .  S
C187        C188   1.396       .  A
C187       C1514   1.416       .  A
C188       C1517   1.401       .  A
C188        H193   1.085       .  S
C189        C190   1.408       .  A
C189       C1516   1.401   1_455  A
C189       C1467   1.468       .  S
C190        C191   1.501       .  S
C191        H195   1.110       .  S
C191        H196   1.108       .  S
C191        H197   1.103       .  S
C194        H198   1.107       .  S
C194        H199   1.109       .  S
C194        H200   1.111       .  S
C201        C206   1.393       .  A
C201       C1530   1.405       .  A
C201        H208   1.083       .  S
C202        C203   1.415       .  A
C202       C1529   1.404       .  A
C203        C210   1.505       .  S
C203        C204   1.395       .  A
C204        C205   1.400       .  A
C204        H209   1.085       .  S
C205       C1534   1.407       .  A
C206        C207   1.507       .  S
C206       C1533   1.406       .  A
C207        H211   1.111       .  S
C207        H212   1.110       .  S
C207        H213   1.101       .  S
C210        H214   1.109       .  S
C210        H215   1.100       .  S
C210        H216   1.111       .  S
C217        C882   1.405       .  A
C217        C886   1.411       .  A
C217        H224   1.084       .  S
C218        C219   1.416       .  A
C218        C881   1.400   1_545  A
C219        C226   1.509       .  S
C219        C220   1.402       .  A
C220        C221   1.407       .  A
C220        H225   1.084       .  S
C221        C222   1.423   1_545  A
C222        C887   1.509       .  S
C222        C881   1.406       .  A
C223        C886   1.508       .  S
C223        H227   1.111       .  S
C223        H228   1.111       .  S
C223        H893   1.106       .  S
C226        H231   1.108       .  S
C226        H232   1.110       .  S
C226        H894   1.110       .  S
H229        C887   1.102       .  S
H230        C890   1.110       .  S
C233        C238   1.411       .  A
C233        C898   1.398   1_545  A
C233        H240   1.084       .  S
C234        C235   1.415       .  A
C234        C897   1.400       .  A
C234        C809   1.484       .  S
C235        C242   1.509       .  S
C235        C236   1.398       .  A
C236        C237   1.404       .  A
C236        H241   1.083       .  S
C237        C902   1.426       .  A
C238        C239   1.502       .  S
C238        C901   1.427   1_545  A
C239        H243   1.111       .  S
C239        H245   1.110       .  S
C239        H908   1.100       .  S
C242        H246   1.110       .  S
C242        H247   1.109       .  S
C242        H248   1.110       .  S
H244        C903   1.105       .  S
C249        C250   1.400   1_545  A
C249        C254   1.400       .  A
C249        H256   1.085       .  S
C250        C251   1.410       .  A
C251        C922   1.503       .  S
C251        C916   1.403       .  A
C252        C915   1.405       .  A
C252        C917   1.402       .  A
C252        H257   1.085       .  S
C253        C254   1.411   1_565  A
C253        C916   1.406       .  A
C254        C255   1.502       .  S
C255        H259   1.110       .  S
C255        H261   1.110       .  S
C255        H924   1.103       .  S
C258        C915   1.496       .  S
C258        H262   1.105       .  S
C258        H264   1.110       .  S
C258        H927   1.110       .  S
H260        C919   1.107       .  S
H263        C922   1.107       .  S
C265        C266   1.407       .  A
C265        C270   1.408       .  A
C265        H272   1.084       .  S
C266        C267   1.413       .  A
C266        C808   1.494       .  S
C267        C938   1.505       .  S
C267        C268   1.412       .  A
C268        C269   1.409       .  A
C268        H273   1.084       .  S
C269        C270   1.416       .  A
C270        C271   1.508       .  S
C271        H275   1.111       .  S
C271        H276   1.105       .  S
C271        H941   1.111       .  S
C274        C931   1.506       .  S
C274        H279   1.111       .  S
C274        H280   1.108       .  S
C274        H942   1.110       .  S
H277        C935   1.108       .  S
H278        C938   1.110       .  S
C281        C282   1.403   1_455  A
C281        C286   1.390       .  A
C281        H288   1.084       .  S
C282       C1611   1.426       .  A
C283        C290   1.510       .  S
C283        C284   1.399       .  A
C283       C1610   1.425       .  A
C284       C1613   1.395       .  A
C284        H289   1.084       .  S
C285        C286   1.411   1_655  A
C285       C1612   1.394       .  A
C285       C1468   1.464       .  S
C286        C287   1.508       .  S
C287        H291   1.111       .  S
C287        H292   1.110       .  S
C287        H293   1.104       .  S
C290        H294   1.111       .  S
C290        H296   1.110       .  S
C290       H1623   1.110       .  S
H295       C1618   1.109       .  S
C297        C298   1.408       .  A
C297        C302   1.410       .  A
C297        H304   1.083       .  S
C298       C1627   1.410       .  A
C299        C306   1.509       .  S
C299        C300   1.384       .  A
C299       C1626   1.411   1_455  A
C300       C1629   1.406   1_455  A
C300        H305   1.084       .  S
C301        C302   1.415       .  A
C301       C1628   1.406       .  A
C302        C303   1.504       .  S
C303        H307   1.111       .  S
C303        H308   1.110       .  S
C303        H309   1.104       .  S
C306        H310   1.103       .  S
C306        H311   1.110       .  S
C306        H312   1.110       .  S
C313        C314   1.390       .  A
C313        C318   1.412       .  A
C313        H320   1.084       .  S
C314        C315   1.416       .  A
C315        C322   1.504       .  S
C315        C316   1.422       .  A
C316        C317   1.420       .  A
C316        H321   1.074       .  S
C317        C318   1.462       .  A
C318        C319   1.521       .  S
C319        H323   1.102       .  S
C319        H324   1.099       .  S
C319        H325   1.111       .  S
C322        H326   1.107       .  S
C322        H327   1.110       .  S
C322        H328   1.110       .  S
C329        C330   1.386       .  A
C329        C334   1.401       .  A
C329        H336   1.086       .  S
C330        C331   1.412       .  A
C331        C338   1.503       .  S
C331        C332   1.421       .  A
C332        C333   1.423       .  A
C332        H337   1.079       .  S
C333       C1480   1.590       .  S
C333        C334   1.448       .  A
C334        C335   1.512       .  S
C335        H339   1.111       .  S
C335        H340   1.100       .  S
C335        H341   1.102       .  S
C338        H342   1.110       .  S
C338        H343   1.109       .  S
C338        H344   1.111       .  S
C345        C346   1.408       .  A
C345        C350   1.405       .  A
C345        H352   1.085       .  S
C346        C347   1.412       .  A
C347        C354   1.499       .  S
C347        C348   1.404       .  A
C348        C349   1.407       .  A
C348        H353   1.084       .  S
C349        C350   1.412       .  A
C350        C351   1.502       .  S
C351        H355   1.111       .  S
C351        H356   1.110   1_554  S
C351        H357   1.107       .  S
C354        H358   1.100       .  S
C354        H359   1.093       .  S
C354        H360   1.111       .  S
C361        C362   1.406       .  A
C361        C366   1.398       .  A
C361        H368   1.085       .  S
C362        C363   1.410       .  A
C363        C370   1.506       .  S
C363        C364   1.403       .  A
C364        C365   1.410       .  A
C364        H369   1.084       .  S
C365        C366   1.413       .  A
C366        C367   1.508       .  S
C367        H371   1.111       .  S
C367        H372   1.109       .  S
C367        H373   1.104       .  S
C370        H374   1.110       .  S
C370        H375   1.105   1_554  S
C370        H376   1.109       .  S
C377        C378   1.407       .  A
C377        C382   1.397       .  A
C377        H384   1.085       .  S
C378        C379   1.411       .  A
C379        C386   1.506       .  S
C379        C380   1.397       .  A
C380        C381   1.404       .  A
C380        H385   1.083       .  S
C381        C382   1.410       .  A
C382        C383   1.510       .  S
C383        H387   1.111       .  S
C383        H388   1.108       .  S
C383        H389   1.111       .  S
C386        H390   1.105   1_556  S
C386        H391   1.111       .  S
C386        H392   1.111       .  S
C393        C394   1.396       .  A
C393        C398   1.406       .  A
C393        H400   1.084       .  S
C394        C395   1.418       .  A
C395        C402   1.511       .  S
C395        C396   1.401       .  A
C396        C397   1.405       .  A
C396        H401   1.084       .  S
C397        C398   1.421       .  A
C398        C399   1.495       .  S
C399        H403   1.111       .  S
C399        H404   1.109       .  S
C399        H405   1.111       .  S
C402        H406   1.110       .  S
C402        H407   1.107       .  S
C402        H408   1.111       .  S
C409        C414   1.413       .  A
C409       C1738   1.398       .  A
C409        H416   1.086       .  S
C410        C411   1.413       .  A
C410       C1737   1.398       .  A
C411        C418   1.505       .  S
C411        C412   1.423       .  A
C412        C413   1.426       .  A
C412        H417   1.078       .  S
C413       C1742   1.445       .  A
C414        C415   1.511       .  S
C414       C1741   1.444       .  A
C415        H419   1.111       .  S
C415        H420   1.111       .  S
C415        H421   1.100       .  S
C418        H422   1.111       .  S
C418        H423   1.109   1_655  S
C418        H424   1.111       .  S
C425        C430   1.417       .  A
C425       C1754   1.429   1_455  A
C425        H432   1.083       .  S
C426       C1339   1.602       .  S
C426        C427   1.461       .  A
C426       C1753   1.428       .  A
C427        C434   1.519       .  S
C427        C428   1.407       .  A
C428        C429   1.386       .  A
C428        H433   1.086       .  S
C429       C1758   1.402       .  A
C430        C431   1.504       .  S
C430       C1757   1.404   1_455  A
C431        H435   1.111       .  S
C431        H436   1.111       .  S
C431        H437   1.111       .  S
C434        H438   1.101       .  S
C434        H439   1.103       .  S
C434        H440   1.111       .  S
C441        C442   1.432       .  A
C441        C446   1.415       .  A
C441        H448   1.077       .  S
C442        C443   1.443       .  A
C443        C450   1.505       .  S
C443        C444   1.420       .  A
C444        C445   1.405       .  A
C444        H449   1.086       .  S
C445        C446   1.409       .  A
C446        C447   1.500       .  S
C447        H451   1.111       .  S
C447        H452   1.109       .  S
C447        H453   1.109       .  S
C450        H454   1.111       .  S
C450        H455   1.089   1_455  S
C450        H456   1.111       .  S
C457        C458   1.424       .  A
C457        C462   1.420       .  A
C457        H464   1.077       .  S
C458       C1339   1.589       .  S
C458        C459   1.446       .  A
C459        C466   1.516       .  S
C459        C460   1.407       .  A
C460        C461   1.395       .  A
C460        H465   1.085       .  S
C461        C462   1.410       .  A
C462        C463   1.505       .  S
C463        H467   1.111       .  S
C463        H468   1.111       .  S
C463        H469   1.110       .  S
C466        H470   1.108       .  S
C466        H471   1.111       .  S
C466        H472   1.107       .  S
C473        C474   1.412       .  A
C473        C478   1.427       .  A
C473        H480   1.085       .  S
C474       C1139   1.405       .  A
C475        C482   1.511       .  S
C475        C476   1.417       .  A
C475       C1138   1.411   1_545  A
C476       C1141   1.439   1_545  A
C476        H481   1.075       .  S
C477        C674   1.627       .  S
C477        C478   1.439       .  A
C477       C1140   1.441       .  A
C478        C479   1.505       .  S
C479        H483   1.111       .  S
C479        H485   1.095       .  S
C479       H1148   1.111       .  S
C482        H486   1.110       .  S
C482        H488   1.111       .  S
C482       H1151   1.110       .  S
H484       C1143   1.111       .  S
H487       C1146   1.110       .  S
C489        C490   1.408   1_545  A
C489        C494   1.421       .  A
C489       H1160   1.080       .  S
C490        C491   1.458       .  A
C491        C498   1.509       .  S
C491        C492   1.416       .  A
C492        C493   1.389   1_565  A
C492        H497   1.084       .  S
C493        C494   1.435       .  A
C494       C1159   1.510       .  S
C495       C1158   1.510       .  S
C495        H499   1.111       .  S
C495        H501   1.109       .  S
C495       H1164   1.111       .  S
H496       C1153   1.082       .  S
C498        H502   1.100       .  S
C498        H504   1.103   1_565  S
C498       H1167   1.111       .  S
H500       C1159   1.111       .  S
H503       C1162   1.111       .  S
C505        C506   1.401       .  A
C505        C510   1.421       .  A
C505        H512   1.085       .  S
C506        C507   1.407       .  A
C507        C514   1.510       .  S
C507        C508   1.390       .  A
C508        C509   1.420       .  A
C508        H513   1.085       .  S
C509        C510   1.446       .  A
C510        C511   1.511   1_545  S
C511        H515   1.111   1_565  S
C511        H516   1.110       .  S
C511        H517   1.090       .  S
C514        H518   1.111       .  S
C514        H519   1.103       .  S
C514        H520   1.109       .  S
C521        C522   1.432       .  A
C521        C526   1.398       .  A
C521        H528   1.078       .  S
C522        C674   1.577       .  S
C522        C523   1.436       .  A
C523        C530   1.509       .  S
C523        C524   1.407       .  A
C524        C525   1.398       .  A
C524        H529   1.085       .  S
C525        C526   1.394       .  A
C526        C527   1.509       .  S
C527        H531   1.111       .  S
C527        H532   1.110       .  S
C527        H533   1.110       .  S
C530        H534   1.103       .  S
C530        H535   1.107       .  S
C530        H536   1.111       .  S
C537        C538   1.400       .  A
C537        C542   1.398       .  A
C537        H544   1.081       .  S
C538        C539   1.408       .  A
C539        C546   1.508       .  S
C539        C540   1.398       .  A
C540        C541   1.405       .  A
C540        H545   1.078       .  S
C541        C542   1.412       .  A
C542        C543   1.502       .  S
C543        H547   1.111       .  S
C543        H548   1.108       .  S
C543        H549   1.107       .  S
C546        H550   1.109       .  S
C546        H551   1.110       .  S
C546        H552   1.110       .  S
C553        C554   1.400       .  A
C553        C558   1.401       .  A
C553        H560   1.084       .  S
C554        C555   1.411       .  A
C555        C562   1.508       .  S
C555        C556   1.397       .  A
C556        C557   1.406       .  A
C556        H561   1.084       .  S
C557        C558   1.420       .  A
C558        C559   1.511       .  S
C559        H563   1.111       .  S
C559        H564   1.106       .  S
C559        H565   1.110       .  S
C562        H566   1.105       .  S
C562        H567   1.110       .  S
C562        H568   1.111       .  S
C569        C570   1.398       .  A
C569        C574   1.394       .  A
C569        H576   1.086       .  S
C570        C571   1.412       .  A
C571        C578   1.507       .  S
C571        C572   1.398       .  A
C572        C573   1.398       .  A
C572        H577   1.074       .  S
C573        C574   1.415       .  A
C574        C575   1.506       .  S
C575        H579   1.111       .  S
C575        H580   1.109       .  S
C575        H581   1.102       .  S
C578        H582   1.110       .  S
C578        H583   1.107       .  S
C578        H584   1.111       .  S
C585        C586   1.400       .  A
C585        C590   1.398       .  A
C585        H592   1.084       .  S
C586        C587   1.412       .  A
C587        C594   1.504       .  S
C587        C588   1.408       .  A
C588        C589   1.404       .  A
C588        H593   1.083       .  S
C589        C590   1.411       .  A
C590        C591   1.496       .  S
C591        H595   1.111       .  S
C591        H596   1.102       .  S
C591        H597   1.110       .  S
C594        H598   1.108   1_556  S
C594        H599   1.110       .  S
C594        H600   1.110       .  S
C601        C602   1.400       .  A
C601        C606   1.408       .  A
C601        H608   1.084       .  S
C602        C603   1.422       .  A
C603        C610   1.508       .  S
C603        C604   1.417       .  A
C604        C605   1.418       .  A
C604        H609   1.076       .  S
C605        C665   1.590       .  S
C605        C606   1.442       .  A
C606        C607   1.514       .  S
C607        H611   1.111       .  S
C607        H613   1.102       .  S
C607       H1276   1.107       .  S
C610        H615   1.108       .  S
C610        H616   1.111       .  S
C610       H1278   1.110       .  S
H612       C1271   1.106       .  S
H614       C1274   1.110       .  S
C617        C618   1.401       .  A
C617       C1286   1.415   1_545  A
C617       H1288   1.086   1_545  S
C618        C619   1.397       .  A
C619        C626   1.510       .  S
C619        C620   1.400       .  A
C620        C621   1.437       .  A
C620        H625   1.076       .  S
C621       C1286   1.439   1_545  A
C622        C623   1.502       .  S
C622       C1281   1.416       .  A
C622       C1285   1.439       .  A
C623        H627   1.111       .  S
C623        H629   1.089       .  S
C623       H1292   1.111       .  S
H624       C1281   1.086       .  S
C626        H630   1.109       .  S
C626        H632   1.111       .  S
C626       H1295   1.109       .  S
H628       C1287   1.111       .  S
H631       C1290   1.109       .  S
C633        C634   1.401       .  A
C633        C638   1.418       .  A
C633        H640   1.066       .  S
C634        C635   1.404       .  A
C635        C642   1.511       .  S
C635        C636   1.399       .  A
C636        C637   1.429       .  A
C636        H641   1.082       .  S
C637        C638   1.437       .  A
C638        C639   1.510       .  S
C639        H643   1.111       .  S
C639        H644   1.110       .  S
C639        H645   1.096   1_545  S
C642        H646   1.110       .  S
C642        H647   1.109       .  S
C642        H648   1.111       .  S
C649        C650   1.397       .  A
C649        C654   1.420       .  A
C649        H656   1.085       .  S
C650        C651   1.411       .  A
C651        C658   1.507       .  S
C651        C652   1.417       .  A
C652        C653   1.425       .  A
C652        H657   1.082       .  S
C653        C665   1.603       .  S
C653        C654   1.460       .  A
C654        C655   1.522       .  S
C655        H659   1.111       .  S
C655        H660   1.102       .  S
C655        H661   1.103       .  S
C658        H662   1.111       .  S
C658        H663   1.109       .  S
C658        H664   1.111       .  S
C665       C1285   1.616       .  S
C665       C1301   1.592       .  S
C666        C667   1.416   1_554  A
C666       C1999   1.395       .  A
C666       C1218   1.474       .  S
C667       C1996   1.396       .  A
C667       C1250   1.474       .  S
C668       C1995   1.396   1_455  A
C668        C669   1.398       .  A
C668        H673   1.085       .  S
C669        C670   1.405   1_556  A
C669       C1234   1.465       .  S
C670        C671   1.388   1_455  A
C670       C1202   1.469       .  S
C671       C1994   1.397       .  A
C671        H672   1.086       .  S
C674       C1154   1.607       .  S
C674       C1173   1.580       .  S
C675       C1077   1.600   1_655  S
C675       C2418   1.603       .  S
C675       C1106   1.616   1_655  S
C675       C2450   1.590       .  S
C676        C677   1.413   1_556  A
C676       C1058   1.481       .  S
C677       C1026   1.483       .  S
C678        C679   1.405       .  A
C678        H683   1.085       .  S
C679        C680   1.418   1_554  A
C679       C1013   1.502       .  S
C680        C681   1.397       .  A
C680       C1042   1.468       .  S
C681        H682   1.087       .  S
O684        C692   1.295       .  A
O684       Co704   2.111       .  S
O685        C693   1.267       .  A
O685       Co705   2.021       .  S
O686        C694   1.253       .  A
O686       Co706   1.947       .  S
O687        C695   1.256       .  A
O687       Co707   1.979       .  S
O688        C694   1.276       .  A
O688       Co705   2.039       .  S
O689        C695   1.269       .  A
O689       Co704   2.035       .  S
O690        C693   1.252       .  A
O690       Co707   1.960       .  S
O691        C692   1.253       .  A
O691       Co706   1.898       .  S
C692       C1253   1.472       .  S
C693       C1170   1.475       .  S
C694       C1045   1.470       .  S
C695       C1125   1.498       .  S
O696        C709   1.260       .  A
O696       Co704   1.955       .  S
O697        C710   1.246       .  A
O697       Co705   1.962       .  S
O698        C711   1.293       .  A
O698       Co706   2.081       .  S
O699        C712   1.285       .  A
O699       Co707   2.081       .  S
O700        C712   1.257       .  A
O700       Co705   1.960       .  S
O701        C711   1.269       .  A
O701       Co704   1.903       .  S
O702        C709   1.276       .  A
O702       Co707   2.028       .  S
O703        C710   1.255       .  A
O703       Co706   2.012       .  S
Co704       O708   2.049       .  S
Co705       O708   2.059       .  S
Co706       O708   2.022       .  S
Co707       O708   2.043       .  S
C709       C1189   1.471       .  S
C710       C1237   1.468       .  S
C711       C1061   1.496       .  S
C712       C1109   1.519       .  S
O713        C721   1.273       .  A
O713       Co733   2.032       .  S
O714        C722   1.300       .  A
O714       Co734   2.132       .  S
O715        C723   1.254       .  A
O715       Co735   1.980       .  S
O716        C724   1.256       .  A
O716       Co736   1.951       .  S
O717        C723   1.261       .  A
O717       Co734   2.015       .  S
O718        C724   1.278       .  A
O718       Co733   2.032       .  S
O719        C722   1.257       .  A
O719       Co736   1.892       .  S
O720        C721   1.260       .  A
O720       Co735   1.974       .  S
C721        C994   1.487       .  S
C722       C1010   1.494       .  S
C723       C1298   1.486       .  S
C724       C1221   1.485       .  S
O725        C738   1.256       .  A
O725       Co733   1.978       .  S
O726        C739   1.269       .  A
O726       Co734   1.983       .  S
O727        C740   1.281       .  A
O727       Co735   2.060       .  S
O728        C741   1.290       .  A
O728       Co736   2.075       .  S
O729        C741   1.266       .  A
O729       Co734   1.901       .  S
O730        C740   1.261       .  A
O730       Co733   1.980       .  S
O731        C738   1.260       .  A
O731       Co736   2.001       .  S
O732        C739   1.288       .  A
O732       Co735   2.055       .  S
Co733       O737   2.064       .  S
Co734       O737   2.052       .  S
Co735       O737   2.024       .  S
Co736       O737   2.002       .  S
C738       C1029   1.482       .  S
C739        C978   1.510       .  S
C740       C1314   1.515       .  S
C741       C1205   1.468       .  S
O742        C750   1.252       .  A
O742       Co762   1.947       .  S
O743        C751   1.295       .  A
O743       Co763   2.041       .  S
O744       C2080   1.273   1_455  A
O746        C752   1.253       .  A
O746       Co763   1.951       .  S
O747        C753   1.249       .  A
O747       Co762   1.961       .  S
O748       C2079   1.285       .  A
C750       C1157   1.517       .  S
C751        C965   1.484       .  S
C751       O2076   1.286       .  A
C752       C1093   1.481       .  S
C752       O2072   1.271       .  A
C753        C914   1.475       .  S
O754        C767   1.277   1_455  A
O754       Co762   2.007       .  S
O755        C768   1.306       .  A
O755       Co763   2.125       .  S
O756       C2097   1.274       .  A
O756      Co2092   2.006       .  S
O757      Co2093   2.054       .  S
O758        C770   1.272       .  A
O758       Co763   1.929       .  S
O759        C769   1.274       .  A
O759       Co762   2.027       .  S
O760       C2095   1.259       .  A
O760      Co2093   1.933       .  S
O761      Co2092   1.915       .  S
Co762       O766   2.021       .  S
Co763      O1430   2.038       .  S
Co764      O2084   2.000       .  S
Co764      O2089   1.934       .  S
Co764       O766   1.950   1_655  S
Co765      O2085   2.051       .  S
Co765      O2088   1.933       .  S
Co765       O766   2.057   1_655  S
O766      Co1427   2.045   1_455  S
C767        C946   1.475       .  S
C767       O2088   1.259       .  A
C768       C1138   1.535       .  S
C769       C1074   1.503       .  S
C769       O2084   1.273   1_455  A
C770        C933   1.488       .  S
O771        C779   1.249       .  A
O771       Co791   1.941   1_655  S
O772        C780   1.269       .  A
O772       Co792   1.898       .  S
O773      Co1457   2.044       .  S
O774        C782   1.259       .  A
O775        C781   1.269       .  A
O775       Co792   1.975   1_545  S
O776        C782   1.250   1_655  A
O776       Co791   1.962   1_655  S
O777      Co1458   2.101       .  S
O778       C2107   1.280       .  A
O778      Co1457   2.071       .  S
C779        C837   1.502       .  S
C779       O2106   1.279   1_655  A
C780        C901   1.498       .  S
C781       C1266   1.512       .  S
C782        C850   1.470       .  S
O783        C796   1.278       .  A
O783       Co791   2.033       .  S
O784        C797   1.266       .  A
O784       Co792   2.017       .  S
O785       Co793   1.961       .  S
O786       C2127   1.261       .  A
O786       Co794   1.866       .  S
O787        C799   1.297       .  A
O787       Co792   2.113       .  S
O788        C798   1.276       .  A
O788       Co791   2.038       .  S
O789       Co794   1.962       .  S
O790       C2125   1.254   1_455  A
O790       Co793   1.981   1_565  S
Co792      O2123   2.013   1_565  S
Co793      O1437   2.045   1_455  S
Co793      O1442   2.070       .  S
Co793       O795   2.029       .  S
Co794      O1441   2.100   1_465  S
Co794       O795   1.992   1_565  S
O795      Co2120   2.016   1_445  S
C796        C885   1.501       .  S
C797        C818   1.485       .  S
C797       O2118   1.255       .  A
C798       C1282   1.484       .  S
C799        C866   1.469       .  S
C799       O2114   1.261       .  A
C800        C801   1.413       .  A
C800        C805   1.401       .  A
C800        C962   1.483       .  S
C801        C802   1.394       .  A
C801        C869   1.466       .  S
C802        C803   1.394       .  A
C802        H807   1.086       .  S
C803        C804   1.401       .  A
C803       C2181   1.470       .  S
C804        C805   1.392       .  A
C804       C2277   1.460       .  S
C805        H806   1.085       .  S
C808        C809   1.421       .  A
C808        C813   1.401       .  A
C810        H815   1.086       .  S
C811        C812   1.413       .  A
C811        C882   1.488       .  S
C812        C813   1.404       .  A
C812        C917   1.477       .  S
C813        H814   1.086       .  S
C816       C2149   1.590       .  S
C816        C834   1.581       .  S
C816        C981   1.605   1_655  S
C816       C2325   1.592       .  S
C817        C818   1.390       .  A
C817        C822   1.405       .  A
C817        H824   1.086       .  S
C818       C2147   1.412       .  A
C819        C826   1.508       .  S
C819       C2146   1.412   1_455  A
C819        C820   1.413       .  A
C820       C2149   1.417   1_455  A
C820        H825   1.072       .  S
C821       C2144   1.593       .  S
C821       C2148   1.416       .  A
C821        C822   1.451       .  A
C822        C823   1.515       .  S
C823        H827   1.112       .  S
C823        H828   1.109       .  S
C823       H2157   1.097       .  S
C826       H2158   1.110       .  S
C826        H831   1.110       .  S
C826        H832   1.111       .  S
H829       C2151   1.096       .  S
H830       C2154   1.110       .  S
C833       C2162   1.432       .  A
C833        C838   1.411       .  A
C833        H840   1.082       .  S
C834       C2161   1.431       .  A
C834        C835   1.438       .  A
C835        C842   1.511       .  S
C835        C836   1.411       .  A
C836        C837   1.411       .  A
C836        H841   1.084       .  S
C837       C2166   1.404       .  A
C838        C839   1.506       .  S
C838       C2165   1.406       .  A
C839        H843   1.111       .  S
C839        H844   1.110       .  S
C839       H2173   1.108       .  S
C842       H2174   1.098       .  S
C842        H847   1.108   1_655  S
C842        H848   1.111       .  S
H845       C2167   1.108   1_455  S
H846       C2170   1.099       .  S
C849        C850   1.404       .  A
C849        C854   1.398       .  A
C849        H856   1.084       .  S
C850       C2179   1.416   1_455  A
C851        C858   1.511       .  S
C851       C2178   1.415       .  A
C851        C852   1.394       .  A
C852       C2181   1.401       .  A
C852        H857   1.085       .  S
C853       C2180   1.402   1_455  A
C853        C854   1.411       .  A
C853       C2131   1.475       .  S
C854        C855   1.503       .  S
C855        H859   1.109       .  S
C855        H860   1.101       .  S
C855        H861   1.110       .  S
C858        H862   1.108       .  S
C858        H863   1.110       .  S
C858        H864   1.111       .  S
C865       C2194   1.407       .  A
C865        C870   1.391       .  A
C865        H872   1.082       .  S
C866       C2193   1.407       .  A
C866        C867   1.415       .  A
C867        C874   1.507       .  S
C867        C868   1.395       .  A
C868        C869   1.401       .  A
C868        H873   1.085       .  S
C869       C2198   1.407       .  A
C870        C871   1.505       .  S
C870       C2197   1.405       .  A
C871        H875   1.111       .  S
C871        H876   1.106       .  S
C871        H877   1.110       .  S
C874        H878   1.109       .  S
C874        H879   1.105       .  S
C874        H880   1.111       .  S
C881        H888   1.085       .  S
C882        C883   1.412       .  A
C883        C890   1.507       .  S
C883        C884   1.404       .  A
C884        C885   1.410       .  A
C884        H889   1.084       .  S
C885        C886   1.422       .  A
C887        H891   1.111       .  S
C887        H892   1.110       .  S
C890        H895   1.107       .  S
C890        H896   1.108       .  S
C897        C902   1.411       .  A
C897        H904   1.084       .  S
C898        C899   1.416       .  A
C899        C906   1.508       .  S
C899        C900   1.397       .  A
C900        C901   1.403       .  A
C900        H905   1.084       .  S
C902        C903   1.503       .  S
C903        H907   1.111       .  S
C903        H909   1.110       .  S
C906        H910   1.110       .  S
C906        H911   1.109       .  S
C906        H912   1.111       .  S
C913        C914   1.401       .  A
C913        C918   1.401       .  A
C913        H920   1.084       .  S
C914        C915   1.410       .  A
C916        H921   1.085       .  S
C917        C918   1.415       .  A
C918        C919   1.508       .  S
C919        H923   1.111       .  S
C919        H925   1.109       .  S
C922        H926   1.110       .  S
C922        H928   1.110       .  S
C929        C930   1.406   1_545  A
C929        C934   1.404       .  A
C929        H936   1.084       .  S
C930        C931   1.412       .  A
C931        C932   1.411       .  A
C932        C933   1.410       .  A
C932        H937   1.084       .  S
C933        C934   1.413   1_565  A
C934        C935   1.507       .  S
C935        H939   1.111       .  S
C935        H940   1.109       .  S
C938        H943   1.111       .  S
C938        H944   1.107       .  S
C945        C946   1.405   1_455  A
C945        C950   1.387       .  A
C945        H952   1.084       .  S
C946       C2275   1.423       .  A
C947        C954   1.508       .  S
C947       C2274   1.425       .  A
C947        C948   1.398       .  A
C948       C2277   1.394       .  A
C948        H953   1.085       .  S
C949       C2276   1.393   1_455  A
C949        C950   1.409       .  A
C949       C2132   1.452       .  S
C950        C951   1.511       .  S
C951        H955   1.111       .  S
C951        H956   1.110       .  S
C951        H957   1.107       .  S
C954        H958   1.111       .  S
C954       H2287   1.108       .  S
C954        H960   1.110       .  S
H959       C2282   1.109       .  S
C961        C962   1.409       .  A
C961        C966   1.412       .  A
C961        H968   1.084       .  S
C962       C2291   1.409       .  A
C963        C970   1.514       .  S
C963       C2290   1.413       .  A
C963        C964   1.389       .  A
C964       C2293   1.404   1_455  A
C964        H969   1.082       .  S
C965       C2292   1.406       .  A
C965        C966   1.416       .  A
C966        C967   1.504       .  S
C967        H971   1.111       .  S
C967        H972   1.110       .  S
C967        H973   1.105       .  S
C970        H974   1.106       .  S
C970        H975   1.105       .  S
C970        H976   1.111       .  S
C977        C978   1.392       .  A
C977        C982   1.412       .  A
C977        H984   1.084       .  S
C978        C979   1.415       .  A
C979        C986   1.503       .  S
C979        C980   1.419       .  A
C980        C981   1.420       .  A
C980        H985   1.075       .  S
C981        C982   1.460       .  A
C982        C983   1.520       .  S
C983        H987   1.102       .  S
C983        H988   1.100       .  S
C983        H989   1.111       .  S
C986        H990   1.106       .  S
C986        H991   1.110       .  S
C986        H992   1.111       .  S
C993        C994   1.385       .  A
C993        C998   1.401       .  A
C993       H1000   1.085       .  S
C994        C995   1.411       .  A
C995       C1002   1.503       .  S
C995        C996   1.421       .  A
C996        C997   1.423       .  A
C996       H1001   1.078       .  S
C997       C2144   1.591       .  S
C997        C998   1.449       .  A
C998        C999   1.513       .  S
C999       H1003   1.111       .  S
C999       H1004   1.099       .  S
C999       H1005   1.101       .  S
C1002      H1006   1.111       .  S
C1002      H1007   1.108       .  S
C1002      H1008   1.111       .  S
C1009      C1010   1.410       .  A
C1009      C1014   1.405       .  A
C1009      H1016   1.085       .  S
C1010      C1011   1.419       .  A
C1011      C1018   1.507       .  S
C1011      C1012   1.409       .  A
C1012      C1013   1.410       .  A
C1012      H1017   1.085       .  S
C1013      C1014   1.412       .  A
C1014      C1015   1.501       .  S
C1015      H1019   1.110       .  S
C1015      H1020   1.110       .  S
C1015      H1021   1.107       .  S
C1018      H1022   1.101       .  S
C1018      H1023   1.111       .  S
C1018      H1024   1.110       .  S
C1025      C1026   1.405       .  A
C1025      C1030   1.399       .  A
C1025      H1032   1.085       .  S
C1026      C1027   1.411       .  A
C1027      C1034   1.506       .  S
C1027      C1028   1.405       .  A
C1028      C1029   1.409       .  A
C1028      H1033   1.084       .  S
C1029      C1030   1.415       .  A
C1030      C1031   1.509       .  S
C1031      H1035   1.111       .  S
C1031      H1036   1.109       .  S
C1031      H1037   1.104       .  S
C1034      H1038   1.110       .  S
C1034      H1039   1.104   1_554  S
C1034      H1040   1.109       .  S
C1041      C1042   1.408       .  A
C1041      C1046   1.399       .  A
C1041      H1048   1.084       .  S
C1042      C1043   1.409       .  A
C1043      C1050   1.507       .  S
C1043      C1044   1.396       .  A
C1044      C1045   1.404       .  A
C1044      H1049   1.081       .  S
C1045      C1046   1.412       .  A
C1046      C1047   1.510       .  S
C1047      H1051   1.111       .  S
C1047      H1052   1.108       .  S
C1047      H1053   1.110       .  S
C1050      H1054   1.105   1_556  S
C1050      H1055   1.111       .  S
C1050      H1056   1.110       .  S
C1057      C1058   1.395       .  A
C1057      C1062   1.404       .  A
C1057      H1064   1.084       .  S
C1058      C1059   1.417       .  A
C1059      C1066   1.511       .  S
C1059      C1060   1.400       .  A
C1060      C1061   1.406       .  A
C1060      H1065   1.084       .  S
C1061      C1062   1.421       .  A
C1062      C1063   1.495       .  S
C1063      H1067   1.111       .  S
C1063      H1068   1.110       .  S
C1063      H1069   1.111       .  S
C1066      H1070   1.110       .  S
C1066      H1071   1.108       .  S
C1066      H1072   1.111       .  S
C1073      C2402   1.398       .  A
C1073      C1078   1.414       .  A
C1073      H1080   1.085       .  S
C1074      C2401   1.396       .  A
C1074      C1075   1.413       .  A
C1075      C1082   1.505       .  S
C1075      C1076   1.421       .  A
C1076      C1077   1.425       .  A
C1076      H1081   1.076       .  S
C1077      C2406   1.444       .  A
C1078      C1079   1.511       .  S
C1078      C2405   1.444       .  A
C1079      H1083   1.111       .  S
C1079      H1084   1.110       .  S
C1079      H1085   1.099       .  S
C1082      H1086   1.110   1_455  S
C1082      H1087   1.110       .  S
C1082      H1088   1.111       .  S
C1089      C2418   1.428   1_455  A
C1089      C1094   1.417       .  A
C1089      H1096   1.083       .  S
C1090      C2003   1.601       .  S
C1090      C2417   1.429       .  A
C1090      C1091   1.459       .  A
C1091      C1098   1.517       .  S
C1091      C1092   1.406       .  A
C1092      C1093   1.385       .  A
C1092      H1097   1.086       .  S
C1093      C2422   1.403       .  A
C1094      C1095   1.504       .  S
C1094      C2421   1.404   1_455  A
C1095      H1099   1.111       .  S
C1095      H1100   1.110       .  S
C1095      H1101   1.111       .  S
C1098      H1102   1.101       .  S
C1098      H1103   1.103       .  S
C1098      H1104   1.111       .  S
C1105      C1106   1.432       .  A
C1105      C1110   1.415       .  A
C1105      H1112   1.077       .  S
C1106      C1107   1.442       .  A
C1107      C1114   1.503       .  S
C1107      C1108   1.420       .  A
C1108      C1109   1.405       .  A
C1108      H1113   1.085       .  S
C1109      C1110   1.409       .  A
C1110      C1111   1.500       .  S
C1111      H1115   1.111       .  S
C1111      H1116   1.109       .  S
C1111      H1117   1.109       .  S
C1114      H1118   1.111       .  S
C1114      H1119   1.086   1_455  S
C1114      H1120   1.111       .  S
C1121      C1122   1.424       .  A
C1121      C1126   1.421       .  A
C1121      H1128   1.076       .  S
C1122      C2003   1.593       .  S
C1122      C1123   1.446       .  A
C1123      C1130   1.515       .  S
C1123      C1124   1.408       .  A
C1124      C1125   1.395       .  A
C1124      H1129   1.085       .  S
C1125      C1126   1.410       .  A
C1126      C1127   1.504       .  S
C1127      H1131   1.111       .  S
C1127      H1132   1.111       .  S
C1127      H1133   1.110       .  S
C1130      H1134   1.108       .  S
C1130      H1135   1.111       .  S
C1130      H1136   1.107       .  S
C1137      C1138   1.415       .  A
C1137      C1142   1.433       .  A
C1137      H1144   1.084       .  S
C1139      C1146   1.511       .  S
C1139      C1140   1.412       .  A
C1140      H1145   1.075       .  S
C1141      C1142   1.440       .  A
C1142      C1143   1.506       .  S
C1143      H1147   1.110       .  S
C1143      H1149   1.097       .  S
C1146      H1150   1.111       .  S
C1146      H1152   1.111       .  S
C1153      C1154   1.409       .  A
C1153      C1158   1.423       .  A
C1154      C1155   1.456       .  A
C1155      C1162   1.508       .  S
C1155      C1156   1.412       .  A
C1156      C1157   1.385       .  A
C1156      H1161   1.084       .  S
C1157      C1158   1.435       .  A
C1159      H1163   1.111       .  S
C1159      H1165   1.109   1_545  S
C1162      H1166   1.099       .  S
C1162      H1168   1.103       .  S
C1169      C1170   1.399       .  A
C1169      C1174   1.417       .  A
C1169      H1176   1.086       .  S
C1170      C1171   1.405       .  A
C1171      C1178   1.510       .  S
C1171      C1172   1.389       .  A
C1172      C1173   1.421       .  A
C1172      H1177   1.085       .  S
C1173      C1174   1.446       .  A
C1174      C1175   1.511       .  S
C1175      H1179   1.111       .  S
C1175      H1180   1.111       .  S
C1175      H1181   1.089       .  S
C1178      H1182   1.111       .  S
C1178      H1183   1.104       .  S
C1178      H1184   1.109       .  S
C1185      C1186   1.432       .  A
C1185      C1190   1.401       .  A
C1185      H1192   1.077       .  S
C1186      C1187   1.439       .  A
C1187      C1194   1.508       .  S
C1187      C1188   1.409       .  A
C1188      C1189   1.397       .  A
C1188      H1193   1.085       .  S
C1189      C1190   1.394       .  A
C1190      C1191   1.509       .  S
C1191      H1195   1.111       .  S
C1191      H1196   1.111       .  S
C1191      H1197   1.110       .  S
C1194      H1198   1.103       .  S
C1194      H1199   1.107       .  S
C1194      H1200   1.111       .  S
C1201      C1202   1.400       .  A
C1201      C1206   1.395       .  A
C1201      H1208   1.082       .  S
C1202      C1203   1.411       .  A
C1203      C1210   1.507       .  S
C1203      C1204   1.401       .  A
C1204      C1205   1.404       .  A
C1204      H1209   1.082       .  S
C1205      C1206   1.409       .  A
C1206      C1207   1.502       .  S
C1207      H1211   1.111       .  S
C1207      H1212   1.108       .  S
C1207      H1213   1.106       .  S
C1210      H1214   1.109       .  S
C1210      H1215   1.110       .  S
C1210      H1216   1.110       .  S
C1217      C1218   1.402       .  A
C1217      C1222   1.404       .  A
C1217      H1224   1.084       .  S
C1218      C1219   1.411       .  A
C1219      C1226   1.507       .  S
C1219      C1220   1.399       .  A
C1220      C1221   1.405       .  A
C1220      H1225   1.084       .  S
C1221      C1222   1.422       .  A
C1222      C1223   1.511       .  S
C1223      H1227   1.111       .  S
C1223      H1228   1.107       .  S
C1223      H1229   1.110       .  S
C1226      H1230   1.104       .  S
C1226      H1231   1.110       .  S
C1226      H1232   1.111       .  S
C1233      C1234   1.397       .  A
C1233      C1238   1.395       .  A
C1233      H1240   1.086       .  S
C1234      C1235   1.412       .  A
C1235      C1242   1.507       .  S
C1235      C1236   1.396       .  A
C1236      C1237   1.396       .  A
C1236      H1241   1.072       .  S
C1237      C1238   1.417       .  A
C1238      C1239   1.506       .  S
C1239      H1243   1.111       .  S
C1239      H1244   1.109       .  S
C1239      H1245   1.101       .  S
C1242      H1246   1.110       .  S
C1242      H1247   1.107       .  S
C1242      H1248   1.111       .  S
C1249      C1250   1.401       .  A
C1249      C1254   1.397       .  A
C1249      H1256   1.083       .  S
C1250      C1251   1.410       .  A
C1251      C1258   1.504       .  S
C1251      C1252   1.406       .  A
C1252      C1253   1.404       .  A
C1252      H1257   1.081       .  S
C1253      C1254   1.410       .  A
C1254      C1255   1.499       .  S
C1255      H1259   1.111       .  S
C1255      H1260   1.104       .  S
C1255      H1261   1.109       .  S
C1258      H1262   1.108   1_556  S
C1258      H1263   1.110       .  S
C1258      H1264   1.110       .  S
C1265      C1266   1.400       .  A
C1265      C1270   1.408       .  A
C1265      H1272   1.083       .  S
C1266      C1267   1.422       .  A
C1267      C1274   1.509       .  S
C1267      C1268   1.417       .  A
C1268      C1269   1.419       .  A
C1268      H1273   1.078       .  S
C1269      C1270   1.441       .  A
C1270      C1271   1.513       .  S
C1271      H1275   1.111       .  S
C1271      H1277   1.101   1_545  S
C1274      H1279   1.109       .  S
C1274      H1280   1.111       .  S
C1281      C1282   1.402       .  A
C1282      C1283   1.397       .  A
C1283      C1290   1.511       .  S
C1283      C1284   1.400       .  A
C1284      C1285   1.438       .  A
C1284      H1289   1.076       .  S
C1286      C1287   1.501       .  S
C1287      H1291   1.110       .  S
C1287      H1293   1.086       .  S
C1290      H1294   1.110       .  S
C1290      H1296   1.111       .  S
C1297      C1298   1.404       .  A
C1297      C1302   1.422       .  A
C1297      H1304   1.083       .  S
C1298      C1299   1.403       .  A
C1299      C1306   1.511       .  S
C1299      C1300   1.396       .  A
C1300      C1301   1.428       .  A
C1300      H1305   1.082       .  S
C1301      C1302   1.441       .  A
C1302      C1303   1.508       .  S
C1303      H1307   1.111       .  S
C1303      H1308   1.110       .  S
C1303      H1309   1.097       .  S
C1306      H1310   1.110       .  S
C1306      H1311   1.109       .  S
C1306      H1312   1.111       .  S
C1313      C1314   1.399       .  A
C1313      C1318   1.421       .  A
C1313      H1320   1.085       .  S
C1314      C1315   1.413       .  A
C1315      C1322   1.507       .  S
C1315      C1316   1.418       .  A
C1316      C1317   1.425       .  A
C1316      H1321   1.082       .  S
C1317      C1318   1.458       .  A
C1318      C1319   1.522       .  S
C1319      H1323   1.111       .  S
C1319      H1324   1.100       .  S
C1319      H1325   1.105       .  S
C1322      H1326   1.110       .  S
C1322      H1327   1.109       .  S
C1322      H1328   1.111       .  S
C1329      C2597   1.592       .  S
C1329      C1949   1.619       .  S
C1329      C1965   1.590       .  S
C1329      C2645   1.602   1_545  S
C1330      C1331   1.415   1_554  A
C1330      C1882   1.471       .  S
C1331      C1914   1.477       .  S
C1332      C1333   1.395       .  A
C1332      H1337   1.086       .  S
C1333      C1334   1.404   1_556  A
C1333      C1898   1.466       .  S
C1334      C1335   1.390       .  A
C1334      C1866   1.467       .  S
C1335      H1336   1.087       .  S
C1338      C2469   1.632       .  S
C1338      C1818   1.606       .  S
C1338      C1837   1.582   1_565  S
C1338      C2514   1.577       .  S
C1339      C1741   1.599       .  S
C1339      C1770   1.615       .  S
C1340      C1341   1.414   1_556  A
C1340      C2009   1.388       .  A
C1340      C1722   1.486       .  S
C1341      C2006   1.412       .  A
C1341      C1690   1.484       .  S
C1342      C2005   1.412       .  A
C1342      C1343   1.402   1_565  A
C1342      H1347   1.085       .  S
C1343      C1344   1.418   1_554  A
C1343      C1677   1.502       .  S
C1344      C1345   1.399       .  A
C1344      C1706   1.468       .  S
C1345      C2004   1.386   1_545  A
C1345      H1346   1.087       .  S
O1348      C1356   1.293       .  A
O1348     Co1368   2.100       .  S
O1349      C1357   1.269       .  A
O1349     Co1369   2.025       .  S
O1350      C1358   1.254       .  A
O1350     Co1370   1.946       .  S
O1351      C1359   1.258       .  A
O1351     Co1371   1.983       .  S
O1352      C1358   1.277       .  A
O1352     Co1369   2.040       .  S
O1353      C1359   1.270       .  A
O1353     Co1368   2.036       .  S
O1354      C1357   1.254       .  A
O1354     Co1371   1.961       .  S
O1355      C1356   1.255       .  A
O1355     Co1370   1.896       .  S
C1356      C1917   1.467       .  S
C1357      C1834   1.478       .  S
C1358      C1709   1.470       .  S
C1359      C1789   1.499       .  S
O1360      C1373   1.258       .  A
O1360     Co1368   1.946       .  S
O1361      C1374   1.245       .  A
O1361     Co1369   1.961       .  S
O1362      C1375   1.293       .  A
O1362     Co1370   2.085       .  S
O1363      C1376   1.285       .  A
O1363     Co1371   2.082       .  S
O1364      C1376   1.255       .  A
O1364     Co1369   1.958       .  S
O1365      C1375   1.269       .  A
O1365     Co1368   1.903       .  S
O1366      C1373   1.274       .  A
O1366     Co1371   2.018       .  S
O1367      C1374   1.256       .  A
O1367     Co1370   2.016       .  S
Co1368     O1372   2.040       .  S
Co1369     O1372   2.051       .  S
Co1370     O1372   2.020       .  S
Co1371     O1372   2.041       .  S
C1373      C1853   1.460       .  S
C1374      C1901   1.470       .  S
C1375      C1725   1.498       .  S
C1376      C1773   1.517       .  S
O1377      C1385   1.274       .  A
O1377     Co1397   2.042       .  S
O1378      C1386   1.298       .  A
O1378     Co1398   2.128       .  S
O1379      C1387   1.251       .  A
O1379     Co1399   1.975       .  S
O1380      C1388   1.256       .  A
O1380     Co1400   1.950       .  S
O1381      C1387   1.262       .  A
O1381     Co1398   2.020       .  S
O1382      C1388   1.276       .  A
O1382     Co1397   2.026       .  S
O1383      C1386   1.257       .  A
O1383     Co1400   1.895       .  S
O1384      C1385   1.258       .  A
O1384     Co1399   1.969       .  S
C1385      C1658   1.491       .  S
C1386      C1674   1.493       .  S
C1387      C1962   1.487       .  S
C1388      C1885   1.481       .  S
O1389      C1402   1.256       .  A
O1389     Co1397   1.978       .  S
O1390      C1403   1.268       .  A
O1390     Co1398   1.983       .  S
O1391      C1404   1.281       .  A
O1391     Co1399   2.062       .  S
O1392      C1405   1.288       .  A
O1392     Co1400   2.069       .  S
O1393      C1405   1.267       .  A
O1393     Co1398   1.905       .  S
O1394      C1404   1.259       .  A
O1394     Co1397   1.975       .  S
O1395      C1402   1.261       .  A
O1395     Co1400   2.000       .  S
O1396      C1403   1.288       .  A
O1396     Co1399   2.057       .  S
Co1397     O1401   2.067       .  S
Co1398     O1401   2.057       .  S
Co1399     O1401   2.020       .  S
Co1400     O1401   2.001       .  S
C1402      C1693   1.481       .  S
C1403      C1642   1.510       .  S
C1404      C1978   1.513       .  S
C1405      C1869   1.469       .  S
O1406      C1414   1.252       .  A
O1406     Co1426   1.948   1_565  S
O1407      C1415   1.293       .  A
O1407     Co1427   2.036       .  S
O1408     Co2092   2.033       .  S
O1409      C2081   1.257       .  A
O1409     Co2093   2.027       .  S
O1410      C1416   1.256       .  A
O1410     Co1427   1.955       .  S
O1411      C1417   1.249       .  A
O1411     Co1426   1.969   1_565  S
O1412     Co2093   1.934       .  S
O1413      C2078   1.292       .  A
O1413     Co2092   2.081       .  S
C1414      C1821   1.514   1_565  S
C1414      O2077   1.292   1_565  A
C1415      C1629   1.484       .  S
C1416      C1757   1.482       .  S
C1417      C1578   1.475       .  S
C1417      O2073   1.256       .  A
O1418      C1431   1.281       .  A
O1418     Co1426   2.021       .  S
O1419      C1432   1.301       .  A
O1419     Co1427   2.109       .  S
O1421      C2098   1.290       .  A
O1422      C1434   1.274       .  A
O1422     Co1427   1.943       .  S
O1423      C1433   1.275       .  A
O1423     Co1426   2.030       .  S
O1425      C2096   1.286       .  A
Co1426     O1430   2.015   1_545  S
Co1428     O2072   2.030   1_545  S
Co1428     O2077   2.082       .  S
Co1428     O1430   1.947   1_545  S
Co1429     O2073   2.027       .  S
Co1429     O2076   1.931       .  S
Co1429     O1430   2.051       .  S
C1431      C1610   1.478       .  S
C1432      C1802   1.531       .  S
C1432      O2089   1.287       .  A
C1433      C1738   1.505       .  S
C1434      C1597   1.497       .  S
C1434      O2085   1.287       .  A
O1435      C1443   1.249       .  A
O1435     Co1455   1.942       .  S
O1436      C1444   1.270       .  A
O1436     Co1456   1.904       .  S
O1437      C2109   1.285       .  A
O1438      C1446   1.259       .  A
O1438     Co2122   1.989   1_545  S
O1439      C1445   1.269       .  A
O1439     Co1456   1.979       .  S
O1440      C1446   1.252       .  A
O1440     Co1455   1.965       .  S
O1441      C2108   1.291   1_545  A
C1443      C1501   1.506       .  S
C1444      C1565   1.500       .  S
C1444      O2105   1.292       .  A
C1445      C1930   1.514       .  S
C1445      O2101   1.284       .  A
C1446      C1514   1.465       .  S
O1447      C1460   1.276       .  A
O1447     Co1455   2.023       .  S
O1448      C1461   1.268       .  A
O1448     Co1456   2.023       .  S
O1449      C2126   1.257       .  A
O1449     Co1457   1.963       .  S
O1450     Co1458   1.869       .  S
O1451      C1463   1.297   1_655  A
O1451     Co1456   2.111       .  S
O1452      C1462   1.278       .  A
O1452     Co1455   2.046       .  S
O1453      C2124   1.264       .  A
O1453     Co1458   1.967       .  S
O1454     Co1457   1.984       .  S
Co1455     O2123   2.028       .  S
Co1457     O1459   2.028       .  S
Co1458     O2102   1.989       .  S
Co1458     O1459   1.996       .  S
O1459     Co2119   2.030       .  S
C1460      C1549   1.491       .  S
C1460      O2117   1.261   1_545  A
C1461      C1482   1.489       .  S
C1462      C1946   1.491       .  S
C1462      O2113   1.257       .  A
C1463      C1530   1.463       .  S
C1464      C1465   1.414   1_655  A
C1464      C1469   1.402       .  A
C1464      C1626   1.487       .  S
C1465      C1466   1.394       .  A
C1465      C1533   1.463       .  S
C1466      C1467   1.389       .  A
C1466      H1471   1.086       .  S
C1467      C1468   1.402   1_455  A
C1468      C1469   1.393       .  A
C1469      H1470   1.085       .  S
C1472      C1473   1.421       .  A
C1472      C1477   1.402       .  A
C1472      C2258   1.487       .  S
C1473      C2138   1.404       .  A
C1473      C2226   1.486       .  S
C1474      C2137   1.406       .  A
C1474      C2139   1.393       .  A
C1474      H1479   1.086       .  S
C1475      C2138   1.393   1_545  A
C1475      C1476   1.408   1_545  A
C1475      C1546   1.476       .  S
C1476      C1477   1.399       .  A
C1476      C1581   1.475       .  S
C1477      H1478   1.086       .  S
C1480      C1498   1.586       .  S
C1480      C1645   1.609       .  S
C1481      C1482   1.391       .  A
C1481      C1486   1.408       .  A
C1481      H1488   1.086       .  S
C1483      C1490   1.507       .  S
C1483      C1484   1.413       .  A
C1484      H1489   1.075       .  S
C1485      C1486   1.452       .  A
C1486      C1487   1.515       .  S
C1487      H1491   1.112       .  S
C1487      H1492   1.108       .  S
C1490      H1495   1.109       .  S
C1490      H1496   1.111       .  S
C1497      C1502   1.412       .  A
C1497      H1504   1.083       .  S
C1498      C1499   1.439       .  A
C1499      C1506   1.510       .  S
C1499      C1500   1.413       .  A
C1500      C1501   1.411       .  A
C1500      H1505   1.084       .  S
C1502      C1503   1.506       .  S
C1503      H1507   1.111       .  S
C1503      H1508   1.110       .  S
C1506      H1511   1.109       .  S
C1506      H1512   1.111       .  S
C1513      C1514   1.403       .  A
C1513      C1518   1.394       .  A
C1513      H1520   1.085       .  S
C1515      C1522   1.510       .  S
C1515      C1516   1.395       .  A
C1516      H1521   1.085       .  S
C1517      C1518   1.410       .  A
C1518      C1519   1.503       .  S
C1519      H1523   1.109       .  S
C1519      H1524   1.110       .  S
C1519      H1525   1.102       .  S
C1522      H1526   1.106       .  S
C1522      H1527   1.111       .  S
C1522      H1528   1.111       .  S
C1529      C1534   1.394       .  A
C1529      H1536   1.083       .  S
C1530      C1531   1.412   1_455  A
C1531      C1538   1.506       .  S
C1531      C1532   1.394       .  A
C1532      C1533   1.402   1_655  A
C1532      H1537   1.085       .  S
C1534      C1535   1.506       .  S
C1535      H1539   1.111       .  S
C1535      H1540   1.110       .  S
C1535      H1541   1.101       .  S
C1538      H1542   1.110       .  S
C1538      H1543   1.104       .  S
C1538      H1544   1.111       .  S
C1545      C2210   1.402       .  A
C1545      C2214   1.406       .  A
C1545      H1552   1.084       .  S
C1546      C2209   1.402   1_545  A
C1546      C1547   1.412       .  A
C1547      C1554   1.508       .  S
C1547      C1548   1.400       .  A
C1548      C1549   1.408       .  A
C1548      H1553   1.084       .  S
C1549      C1550   1.421   1_545  A
C1550      C2215   1.509       .  S
C1550      C2209   1.406       .  A
C1551      C2214   1.508       .  S
C1551      H1555   1.111       .  S
C1551      H1556   1.110       .  S
C1551      H2221   1.104       .  S
C1554      H2222   1.110       .  S
C1554      H1559   1.108       .  S
C1554      H1560   1.110       .  S
H1557      C2215   1.103       .  S
H1558      C2218   1.111       .  S
C1561      C2226   1.397   1_545  A
C1561      C1566   1.410       .  A
C1561      H1568   1.084       .  S
C1562      C2225   1.397       .  A
C1562      C1563   1.417       .  A
C1562      C2137   1.482       .  S
C1563      C1570   1.509       .  S
C1563      C1564   1.400       .  A
C1564      C1565   1.404       .  A
C1564      H1569   1.084       .  S
C1565      C2230   1.426       .  A
C1566      C1567   1.502       .  S
C1566      C2229   1.427   1_545  A
C1567      H1571   1.111       .  S
C1567      H2236   1.103       .  S
C1567      H1573   1.110       .  S
C1570      H1574   1.111       .  S
C1570      H1575   1.109       .  S
C1570      H1576   1.110       .  S
H1572      C2231   1.104       .  S
C1577      C1578   1.402   1_545  A
C1577      C1582   1.403       .  A
C1577      H1584   1.084       .  S
C1578      C1579   1.409       .  A
C1579      C2250   1.494       .  S
C1579      C2244   1.401       .  A
C1580      C2243   1.404       .  A
C1580      C2245   1.401       .  A
C1580      H1585   1.084       .  S
C1581      C2244   1.401       .  A
C1581      C1582   1.412   1_565  A
C1582      C1583   1.503       .  S
C1583      H1587   1.111       .  S
C1583      H2252   1.104       .  S
C1583      H1589   1.110       .  S
C1586      C2243   1.495       .  S
C1586      H1590   1.106       .  S
C1586      H2255   1.109       .  S
C1586      H1592   1.111       .  S
H1588      C2247   1.109       .  S
H1591      C2250   1.110       .  S
C1593      C1594   1.404       .  A
C1593      C1598   1.406       .  A
C1593      H1600   1.084       .  S
C1594      C1595   1.413       .  A
C1594      C2136   1.492       .  S
C1595      C2266   1.505       .  S
C1595      C1596   1.413       .  A
C1596      C1597   1.410       .  A
C1596      H1601   1.083       .  S
C1597      C1598   1.418       .  A
C1598      C1599   1.508       .  S
C1599      H1603   1.111       .  S
C1599      H1604   1.104       .  S
C1599      H2269   1.110       .  S
C1602      C2259   1.505       .  S
C1602      H2270   1.111       .  S
C1602      H1607   1.111       .  S
C1602      H1608   1.108       .  S
H1605      C2263   1.108       .  S
H1606      C2266   1.111       .  S
C1609      C1610   1.403       .  A
C1609      C1614   1.389       .  A
C1609      H1616   1.084       .  S
C1611      C1618   1.509       .  S
C1611      C1612   1.400       .  A
C1612      H1617   1.085       .  S
C1613      C1614   1.412       .  A
C1614      C1615   1.508       .  S
C1615      H1619   1.111       .  S
C1615      H1620   1.110       .  S
C1615      H1621   1.104       .  S
C1618      H1622   1.111       .  S
C1618      H1624   1.110       .  S
C1625      C1626   1.410       .  A
C1625      C1630   1.413       .  A
C1625      H1632   1.083       .  S
C1627      C1634   1.509       .  S
C1627      C1628   1.383       .  A
C1628      H1633   1.084       .  S
C1629      C1630   1.416       .  A
C1630      C1631   1.505       .  S
C1631      H1635   1.111       .  S
C1631      H1636   1.110       .  S
C1631      H1637   1.105       .  S
C1634      H1638   1.104       .  S
C1634      H1639   1.110       .  S
C1634      H1640   1.110       .  S
C1641      C1642   1.392       .  A
C1641      C1646   1.413       .  A
C1641      H1648   1.084       .  S
C1642      C1643   1.415       .  A
C1643      C1650   1.504       .  S
C1643      C1644   1.421       .  A
C1644      C1645   1.421       .  A
C1644      H1649   1.078       .  S
C1645      C1646   1.460       .  A
C1646      C1647   1.519       .  S
C1647      H1651   1.102       .  S
C1647      H1652   1.101       .  S
C1647      H1653   1.111       .  S
C1650      H1654   1.107       .  S
C1650      H1655   1.110       .  S
C1650      H1656   1.111       .  S
C1657      C1658   1.386       .  A
C1657      C1662   1.402       .  A
C1657      H1664   1.086       .  S
C1658      C1659   1.412       .  A
C1659      C1666   1.503       .  S
C1659      C1660   1.424       .  A
C1660      C1661   1.424       .  A
C1660      H1665   1.079       .  S
C1661      C1662   1.449       .  A
C1662      C1663   1.511       .  S
C1663      H1667   1.111       .  S
C1663      H1668   1.099       .  S
C1663      H1669   1.102       .  S
C1666      H1670   1.111       .  S
C1666      H1671   1.109       .  S
C1666      H1672   1.111       .  S
C1673      C1674   1.409       .  A
C1673      C1678   1.405       .  A
C1673      H1680   1.084       .  S
C1674      C1675   1.419       .  A
C1675      C1682   1.507       .  S
C1675      C1676   1.409       .  A
C1676      C1677   1.410       .  A
C1676      H1681   1.084       .  S
C1677      C1678   1.412       .  A
C1678      C1679   1.503       .  S
C1679      H1683   1.111       .  S
C1679      H1684   1.109       .  S
C1679      H1685   1.107       .  S
C1682      H1686   1.101       .  S
C1682      H1687   1.110       .  S
C1682      H1688   1.110       .  S
C1689      C1690   1.406       .  A
C1689      C1694   1.400       .  A
C1689      H1696   1.085       .  S
C1690      C1691   1.411       .  A
C1691      C1698   1.506       .  S
C1691      C1692   1.403       .  A
C1692      C1693   1.408       .  A
C1692      H1697   1.083       .  S
C1693      C1694   1.415       .  A
C1694      C1695   1.509       .  S
C1695      H1699   1.111       .  S
C1695      H1700   1.109       .  S
C1695      H1701   1.105       .  S
C1698      H1702   1.110       .  S
C1698      H1703   1.103   1_554  S
C1698      H1704   1.107       .  S
C1705      C1706   1.407       .  A
C1705      C1710   1.398       .  A
C1705      H1712   1.085       .  S
C1706      C1707   1.410       .  A
C1707      C1714   1.506       .  S
C1707      C1708   1.397       .  A
C1708      C1709   1.404       .  A
C1708      H1713   1.080       .  S
C1709      C1710   1.411       .  A
C1710      C1711   1.509       .  S
C1711      H1715   1.111       .  S
C1711      H1716   1.108       .  S
C1711      H1717   1.111       .  S
C1714      H1718   1.106   1_556  S
C1714      H1719   1.111       .  S
C1714      H1720   1.110       .  S
C1721      C1722   1.397       .  A
C1721      C1726   1.406       .  A
C1721      H1728   1.084       .  S
C1722      C1723   1.418       .  A
C1723      C1730   1.512       .  S
C1723      C1724   1.400       .  A
C1724      C1725   1.406       .  A
C1724      H1729   1.084       .  S
C1725      C1726   1.421       .  A
C1726      C1727   1.497       .  S
C1727      H1731   1.111       .  S
C1727      H1732   1.110       .  S
C1727      H1733   1.110       .  S
C1730      H1734   1.110       .  S
C1730      H1735   1.107       .  S
C1730      H1736   1.111       .  S
C1737      C1742   1.415       .  A
C1737      H1744   1.084   1_655  S
C1738      C1739   1.413       .  A
C1739      C1746   1.504       .  S
C1739      C1740   1.421       .  A
C1740      C1741   1.424       .  A
C1740      H1745   1.077       .  S
C1742      C1743   1.515       .  S
C1743      H1747   1.111   1_655  S
C1743      H1748   1.107       .  S
C1743      H1749   1.105   1_655  S
C1746      H1750   1.110       .  S
C1746      H1751   1.109       .  S
C1746      H1752   1.111       .  S
C1753      C1758   1.415       .  A
C1753      H1760   1.083       .  S
C1754      C1755   1.462       .  A
C1755      C1762   1.520       .  S
C1755      C1756   1.404       .  A
C1756      C1757   1.383       .  A
C1756      H1761   1.086       .  S
C1758      C1759   1.504       .  S
C1759      H1763   1.111       .  S
C1759      H1764   1.111       .  S
C1759      H1765   1.110       .  S
C1762      H1766   1.101       .  S
C1762      H1767   1.103       .  S
C1762      H1768   1.111       .  S
C1769      C1770   1.430       .  A
C1769      C1774   1.411       .  A
C1769      H1776   1.076       .  S
C1770      C1771   1.443       .  A
C1771      C1778   1.505       .  S
C1771      C1772   1.421       .  A
C1772      C1773   1.406       .  A
C1772      H1777   1.084       .  S
C1773      C1774   1.407       .  A
C1774      C1775   1.498       .  S
C1775      H1779   1.111       .  S
C1775      H1780   1.109       .  S
C1775      H1781   1.109       .  S
C1778      H1782   1.111       .  S
C1778      H1783   1.090       .  S
C1778      H1784   1.111       .  S
C1785      C1786   1.423       .  A
C1785      C1790   1.422       .  A
C1785      H1792   1.078       .  S
C1786      C1787   1.446       .  A
C1787      C1794   1.515       .  S
C1787      C1788   1.408       .  A
C1788      C1789   1.395       .  A
C1788      H1793   1.085       .  S
C1789      C1790   1.412       .  A
C1790      C1791   1.504       .  S
C1791      H1795   1.111       .  S
C1791      H1796   1.110       .  S
C1791      H1797   1.109       .  S
C1794      H1798   1.108       .  S
C1794      H1799   1.111       .  S
C1794      H1800   1.107       .  S
C1801      C1802   1.413       .  A
C1801      C1806   1.430       .  A
C1801      H1808   1.084       .  S
C1802      C2467   1.409       .  A
C1803      C1810   1.510       .  S
C1803      C2466   1.409   1_545  A
C1803      C1804   1.415       .  A
C1804      C2469   1.439   1_545  A
C1804      H1809   1.075       .  S
C1805      C2002   1.633       .  S
C1805      C2468   1.441       .  A
C1805      C1806   1.440       .  A
C1806      C1807   1.504       .  S
C1807      H1811   1.110       .  S
C1807      H2476   1.111       .  S
C1807      H1813   1.094       .  S
C1810      H1814   1.111       .  S
C1810      H2479   1.109       .  S
C1810      H1816   1.111       .  S
H1812      C2471   1.111       .  S
H1815      C2474   1.109       .  S
C1817      C1818   1.408   1_545  A
C1817      C1822   1.419       .  A
C1817      H2488   1.081       .  S
C1818      C1819   1.457       .  A
C1819      C1826   1.509       .  S
C1819      C1820   1.413       .  A
C1820      C1821   1.387   1_565  A
C1820      H1825   1.084       .  S
C1821      C1822   1.433       .  A
C1822      C2487   1.510       .  S
C1823      C2486   1.509       .  S
C1823      H1827   1.111       .  S
C1823      H2492   1.111       .  S
C1823      H1829   1.109       .  S
H1824      C2481   1.081       .  S
C1826      H1830   1.100       .  S
C1826      H2495   1.111       .  S
C1826      H1832   1.102   1_565  S
H1828      C2487   1.111       .  S
H1831      C2490   1.111       .  S
C1833      C1834   1.400       .  A
C1833      C1838   1.419       .  A
C1833      H1840   1.085       .  S
C1834      C1835   1.405       .  A
C1835      C1842   1.509       .  S
C1835      C1836   1.389       .  A
C1836      C1837   1.420       .  A
C1836      H1841   1.084       .  S
C1837      C1838   1.446       .  A
C1838      C1839   1.511   1_545  S
C1839      H1843   1.111   1_565  S
C1839      H1844   1.110       .  S
C1839      H1845   1.090       .  S
C1842      H1846   1.110       .  S
C1842      H1847   1.104       .  S
C1842      H1848   1.109       .  S
C1849      C1850   1.432       .  A
C1849      C1854   1.394       .  A
C1849      H1856   1.076       .  S
C1850      C2002   1.574       .  S
C1850      C1851   1.434       .  A
C1851      C1858   1.509       .  S
C1851      C1852   1.407       .  A
C1852      C1853   1.399       .  A
C1852      H1857   1.085       .  S
C1853      C1854   1.391       .  A
C1854      C1855   1.510       .  S
C1855      H1859   1.111       .  S
C1855      H1860   1.110       .  S
C1855      H1861   1.110       .  S
C1858      H1862   1.103       .  S
C1858      H1863   1.107       .  S
C1858      H1864   1.111       .  S
C1865      C1866   1.400       .  A
C1865      C1870   1.396       .  A
C1865      H1872   1.082       .  S
C1866      C1867   1.410       .  A
C1867      C1874   1.507       .  S
C1867      C1868   1.400       .  A
C1868      C1869   1.403       .  A
C1868      H1873   1.081       .  S
C1869      C1870   1.410       .  A
C1870      C1871   1.502       .  S
C1871      H1875   1.111       .  S
C1871      H1876   1.108       .  S
C1871      H1877   1.107       .  S
C1874      H1878   1.109       .  S
C1874      H1879   1.110       .  S
C1874      H1880   1.109       .  S
C1881      C1882   1.402       .  A
C1881      C1886   1.402       .  A
C1881      H1888   1.084       .  S
C1882      C1883   1.410       .  A
C1883      C1890   1.508       .  S
C1883      C1884   1.397       .  A
C1884      C1885   1.405       .  A
C1884      H1889   1.084       .  S
C1885      C1886   1.421       .  A
C1886      C1887   1.511       .  S
C1887      H1891   1.111       .  S
C1887      H1892   1.107       .  S
C1887      H1893   1.110       .  S
C1890      H1894   1.104       .  S
C1890      H1895   1.110       .  S
C1890      H1896   1.111       .  S
C1897      C1898   1.398       .  A
C1897      C1902   1.396       .  A
C1897      H1904   1.085       .  S
C1898      C1899   1.412       .  A
C1899      C1906   1.507       .  S
C1899      C1900   1.398       .  A
C1900      C1901   1.397       .  A
C1900      H1905   1.072       .  S
C1901      C1902   1.417       .  A
C1902      C1903   1.506       .  S
C1903      H1907   1.111       .  S
C1903      H1908   1.109       .  S
C1903      H1909   1.102       .  S
C1906      H1910   1.110       .  S
C1906      H1911   1.107       .  S
C1906      H1912   1.111       .  S
C1913      C1914   1.401       .  A
C1913      C1918   1.395       .  A
C1913      H1920   1.084       .  S
C1914      C1915   1.412       .  A
C1915      C1922   1.504       .  S
C1915      C1916   1.405       .  A
C1916      C1917   1.402       .  A
C1916      H1921   1.084       .  S
C1917      C1918   1.409       .  A
C1918      C1919   1.499       .  S
C1919      H1923   1.111       .  S
C1919      H1924   1.103       .  S
C1919      H1925   1.108       .  S
C1922      H1926   1.106   1_556  S
C1922      H1927   1.110       .  S
C1922      H1928   1.110       .  S
C1929      C1930   1.401       .  A
C1929      C1934   1.410       .  A
C1929      H1936   1.084       .  S
C1930      C1931   1.422       .  A
C1931      C1938   1.508       .  S
C1931      C1932   1.417       .  A
C1932      C1933   1.418       .  A
C1932      H1937   1.078       .  S
C1933      C1993   1.589       .  S
C1933      C1934   1.442       .  A
C1934      C1935   1.514       .  S
C1935      H1939   1.111       .  S
C1935      H2604   1.107       .  S
C1935      H1941   1.103       .  S
C1938      H2606   1.111       .  S
C1938      H1943   1.109       .  S
C1938      H1944   1.111       .  S
H1940      C2599   1.107       .  S
H1942      C2602   1.110       .  S
C1945      C1946   1.404       .  A
C1945      C2614   1.418   1_545  A
C1945      H2616   1.086   1_545  S
C1946      C1947   1.398       .  A
C1947      C1954   1.511       .  S
C1947      C1948   1.403       .  A
C1948      C1949   1.438       .  A
C1948      H1953   1.075       .  S
C1949      C2614   1.440   1_545  A
C1950      C1951   1.501       .  S
C1950      C2609   1.417       .  A
C1950      C2613   1.438       .  A
C1951      H1955   1.111       .  S
C1951      H2620   1.111       .  S
C1951      H1957   1.086       .  S
H1952      C2609   1.085       .  S
C1954      H1958   1.110       .  S
C1954      H2623   1.110       .  S
C1954      H1960   1.111       .  S
H1956      C2615   1.111       .  S
H1959      C2618   1.108       .  S
C1961      C1962   1.403       .  A
C1961      C1966   1.421       .  A
C1961      H1968   1.084       .  S
C1962      C1963   1.405       .  A
C1963      C1970   1.511       .  S
C1963      C1964   1.396       .  A
C1964      C1965   1.427       .  A
C1964      H1969   1.083       .  S
C1965      C1966   1.442       .  A
C1966      C1967   1.509       .  S
C1967      H1971   1.111       .  S
C1967      H1972   1.110       .  S
C1967      H1973   1.097   1_545  S
C1970      H1974   1.110       .  S
C1970      H1975   1.109       .  S
C1970      H1976   1.111       .  S
C1977      C1978   1.396       .  A
C1977      C1982   1.420       .  A
C1977      H1984   1.086       .  S
C1978      C1979   1.414       .  A
C1979      C1986   1.506       .  S
C1979      C1980   1.419       .  A
C1980      C1981   1.424       .  A
C1980      H1985   1.083       .  S
C1981      C1993   1.604       .  S
C1981      C1982   1.460       .  A
C1982      C1983   1.522       .  S
C1983      H1987   1.111       .  S
C1983      H1988   1.101       .  S
C1983      H1989   1.104       .  S
C1986      H1990   1.110       .  S
C1986      H1991   1.109       .  S
C1986      H1992   1.111       .  S
C1993      C2613   1.616       .  S
C1993      C2629   1.590       .  S
C1994      C1995   1.415   1_554  A
C1994      C2546   1.469       .  S
C1995      C2578   1.478       .  S
C1996      C1997   1.393       .  A
C1996      H2001   1.086       .  S
C1997      C1998   1.405   1_556  A
C1997      C2562   1.469       .  S
C1998      C1999   1.392       .  A
C1998      C2530   1.464       .  S
C1999      H2000   1.086       .  S
C2002      C2482   1.607       .  S
C2002      C2501   1.579       .  S
C2003      C2405   1.600       .  S
C2003      C2434   1.615       .  S
C2004      C2005   1.413   1_556  A
C2004      C2386   1.486       .  S
C2005      C2354   1.478       .  S
C2006      C2007   1.406       .  A
C2006      H2011   1.085       .  S
C2007      C2008   1.418   1_554  A
C2007      C2341   1.502       .  S
C2008      C2009   1.399       .  A
C2008      C2370   1.473       .  S
C2009      H2010   1.086       .  S
O2012      C2020   1.295       .  A
O2012     Co2032   2.112       .  S
O2013      C2021   1.269       .  A
O2013     Co2033   2.024       .  S
O2014      C2022   1.253       .  A
O2014     Co2034   1.945       .  S
O2015      C2023   1.256       .  A
O2015     Co2035   1.981       .  S
O2016      C2022   1.277       .  A
O2016     Co2033   2.043       .  S
O2017      C2023   1.269       .  A
O2017     Co2032   2.031       .  S
O2018      C2021   1.253       .  A
O2018     Co2035   1.960       .  S
O2019      C2020   1.255       .  A
O2019     Co2034   1.902       .  S
C2020      C2581   1.477       .  S
C2021      C2498   1.477       .  S
C2022      C2373   1.471       .  S
C2023      C2453   1.496       .  S
O2024      C2037   1.260       .  A
O2024     Co2032   1.953       .  S
O2025      C2038   1.245       .  A
O2025     Co2033   1.961       .  S
O2026      C2039   1.292       .  A
O2026     Co2034   2.080       .  S
O2027      C2040   1.284       .  A
O2027     Co2035   2.079       .  S
O2028      C2040   1.255       .  A
O2028     Co2033   1.961       .  S
O2029      C2039   1.270       .  A
O2029     Co2032   1.911       .  S
O2030      C2037   1.276       .  A
O2030     Co2035   2.025       .  S
O2031      C2038   1.257       .  A
O2031     Co2034   2.019       .  S
Co2032     O2036   2.047       .  S
Co2033     O2036   2.056       .  S
Co2034     O2036   2.020       .  S
Co2035     O2036   2.042       .  S
C2037      C2517   1.468       .  S
C2038      C2565   1.470       .  S
C2039      C2389   1.500       .  S
C2040      C2437   1.518       .  S
O2041      C2049   1.275       .  A
O2041     Co2061   2.040       .  S
O2042      C2050   1.300       .  A
O2042     Co2062   2.133       .  S
O2043      C2051   1.253       .  A
O2043     Co2063   1.975       .  S
O2044      C2052   1.256       .  A
O2044     Co2064   1.948       .  S
O2045      C2051   1.260       .  A
O2045     Co2062   2.011       .  S
O2046      C2052   1.277       .  A
O2046     Co2061   2.032       .  S
O2047      C2050   1.256       .  A
O2047     Co2064   1.890       .  S
O2048      C2049   1.259       .  A
O2048     Co2063   1.972       .  S
C2049      C2322   1.489       .  S
C2050      C2338   1.493       .  S
C2051      C2626   1.480       .  S
C2052      C2549   1.483       .  S
O2053      C2066   1.256       .  A
O2053     Co2061   1.977       .  S
O2054      C2067   1.268       .  A
O2054     Co2062   1.982       .  S
O2055      C2068   1.280       .  A
O2055     Co2063   2.056       .  S
O2056      C2069   1.288       .  A
O2056     Co2064   2.072       .  S
O2057      C2069   1.266       .  A
O2057     Co2062   1.898       .  S
O2058      C2068   1.259       .  A
O2058     Co2061   1.976       .  S
O2059      C2066   1.258       .  A
O2059     Co2064   1.989       .  S
O2060      C2067   1.288       .  A
O2060     Co2063   2.053       .  S
Co2061     O2065   2.062       .  S
Co2062     O2065   2.049       .  S
Co2063     O2065   2.020       .  S
Co2064     O2065   1.995       .  S
C2066      C2357   1.475       .  S
C2067      C2306   1.508       .  S
C2068      C2642   1.508       .  S
C2069      C2533   1.464       .  S
O2070      C2078   1.253       .  A
O2070     Co2090   1.949       .  S
O2071      C2079   1.296       .  A
O2071     Co2091   2.049       .  S
O2074      C2080   1.256       .  A
O2074     Co2091   1.958       .  S
O2075      C2081   1.251       .  A
O2075     Co2090   1.963       .  S
C2078      C2485   1.514       .  S
C2079      C2293   1.487       .  S
C2080      C2421   1.484       .  S
C2081      C2242   1.476       .  S
O2082      C2095   1.278       .  A
O2082     Co2090   2.013       .  S
O2083      C2096   1.303       .  A
O2083     Co2091   2.117       .  S
O2086      C2098   1.274       .  A
O2086     Co2091   1.933       .  S
O2087      C2097   1.274       .  A
O2087     Co2090   2.032       .  S
Co2090     O2094   2.020       .  S
Co2092     O2094   1.947       .  S
Co2093     O2094   2.053       .  S
C2095      C2274   1.476       .  S
C2096      C2466   1.530       .  S
C2097      C2402   1.509       .  S
C2098      C2261   1.488       .  S
O2099      C2107   1.251       .  A
O2099     Co2119   1.946       .  S
O2100      C2108   1.269       .  A
O2100     Co2120   1.902       .  S
O2102      C2110   1.259       .  A
O2103      C2109   1.270       .  A
O2103     Co2120   1.975   1_545  S
O2104      C2110   1.253       .  A
O2104     Co2119   1.963       .  S
C2107      C2165   1.509       .  S
C2108      C2229   1.500       .  S
C2109      C2594   1.513       .  S
C2110      C2178   1.467       .  S
O2111      C2124   1.276       .  A
O2111     Co2119   2.024       .  S
O2112      C2125   1.265       .  A
O2112     Co2120   2.015       .  S
O2113     Co2121   1.963       .  S
O2114     Co2122   1.865       .  S
O2115      C2127   1.296       .  A
O2115     Co2120   2.111   1_455  S
O2116      C2126   1.277       .  A
O2116     Co2119   2.041       .  S
O2117     Co2122   1.963       .  S
O2118     Co2121   1.983   1_565  S
Co2121     O2123   2.024       .  S
Co2122     O2123   1.993   1_565  S
C2124      C2213   1.495       .  S
C2125      C2146   1.482       .  S
C2126      C2610   1.487       .  S
C2127      C2194   1.467       .  S
C2128      C2129   1.415       .  A
C2128      C2133   1.394   1_455  A
C2128      C2290   1.484       .  S
C2129      C2130   1.398       .  A
C2129      C2197   1.465       .  S
C2130      C2131   1.395       .  A
C2130      H2135   1.086       .  S
C2131      C2132   1.401       .  A
C2132      C2133   1.390   1_455  A
C2133      H2134   1.085       .  S
C2136      C2137   1.421       .  A
C2136      C2141   1.402       .  A
C2138      H2143   1.086       .  S
C2139      C2140   1.409       .  A
C2139      C2210   1.480       .  S
C2140      C2141   1.403       .  A
C2140      C2245   1.476       .  S
C2141      H2142   1.086       .  S
C2144      C2162   1.585       .  S
C2144      C2309   1.607       .  S
C2145      C2146   1.389       .  A
C2145      C2150   1.402       .  A
C2145      H2152   1.087       .  S
C2147      C2154   1.507       .  S
C2147      C2148   1.413       .  A
C2148      H2153   1.076       .  S
C2149      C2150   1.449       .  A
C2150      C2151   1.515       .  S
C2151      H2155   1.112       .  S
C2151      H2156   1.110       .  S
C2154      H2159   1.109       .  S
C2154      H2160   1.111       .  S
C2161      C2166   1.408       .  A
C2161      H2168   1.083       .  S
C2162      C2163   1.438       .  A
C2163      C2170   1.511       .  S
C2163      C2164   1.414       .  A
C2164      C2165   1.412       .  A
C2164      H2169   1.084       .  S
C2166      C2167   1.506       .  S
C2167      H2171   1.111       .  S
C2167      H2172   1.111       .  S
C2170      H2175   1.106       .  S
C2170      H2176   1.111       .  S
C2177      C2178   1.405       .  A
C2177      C2182   1.396       .  A
C2177      H2184   1.084       .  S
C2179      C2186   1.511       .  S
C2179      C2180   1.396       .  A
C2180      H2185   1.085       .  S
C2181      C2182   1.410       .  A
C2182      C2183   1.505       .  S
C2183      H2187   1.110       .  S
C2183      H2188   1.102       .  S
C2183      H2189   1.110       .  S
C2186      H2190   1.106       .  S
C2186      H2191   1.110       .  S
C2186      H2192   1.111       .  S
C2193      C2198   1.392       .  A
C2193      H2200   1.083       .  S
C2194      C2195   1.414   1_455  A
C2195      C2202   1.507       .  S
C2195      C2196   1.395       .  A
C2196      C2197   1.401   1_655  A
C2196      H2201   1.084       .  S
C2198      C2199   1.507       .  S
C2199      H2203   1.110       .  S
C2199      H2204   1.107       .  S
C2199      H2205   1.110       .  S
C2202      H2206   1.109       .  S
C2202      H2207   1.106       .  S
C2202      H2208   1.111       .  S
C2209      H2216   1.085       .  S
C2210      C2211   1.411       .  A
C2211      C2218   1.508       .  S
C2211      C2212   1.403       .  A
C2212      C2213   1.411       .  A
C2212      H2217   1.084       .  S
C2213      C2214   1.421       .  A
C2215      H2219   1.111       .  S
C2215      H2220   1.110       .  S
C2218      H2223   1.108       .  S
C2218      H2224   1.109       .  S
C2225      C2230   1.409       .  A
C2225      H2232   1.084       .  S
C2226      C2227   1.418       .  A
C2227      C2234   1.510       .  S
C2227      C2228   1.399       .  A
C2228      C2229   1.404       .  A
C2228      H2233   1.084       .  S
C2230      C2231   1.502       .  S
C2231      H2235   1.111       .  S
C2231      H2237   1.110       .  S
C2234      H2238   1.111       .  S
C2234      H2239   1.109       .  S
C2234      H2240   1.110       .  S
C2241      C2242   1.401       .  A
C2241      C2246   1.400       .  A
C2241      H2248   1.084       .  S
C2242      C2243   1.411       .  A
C2244      H2249   1.085       .  S
C2245      C2246   1.412       .  A
C2246      C2247   1.507       .  S
C2247      H2251   1.111       .  S
C2247      H2253   1.109       .  S
C2250      H2254   1.100       .  S
C2250      H2256   1.111       .  S
C2257      C2258   1.406   1_545  A
C2257      C2262   1.403       .  A
C2257      H2264   1.085       .  S
C2258      C2259   1.412       .  A
C2259      C2260   1.411       .  A
C2260      C2261   1.409       .  A
C2260      H2265   1.084       .  S
C2261      C2262   1.414   1_565  A
C2262      C2263   1.507       .  S
C2263      H2267   1.111       .  S
C2263      H2268   1.108       .  S
C2266      H2271   1.111       .  S
C2266      H2272   1.108       .  S
C2273      C2274   1.403       .  A
C2273      C2278   1.388       .  A
C2273      H2280   1.084       .  S
C2275      C2282   1.506       .  S
C2275      C2276   1.397       .  A
C2276      H2281   1.084       .  S
C2277      C2278   1.410       .  A
C2278      C2279   1.508       .  S
C2279      H2283   1.111       .  S
C2279      H2284   1.110       .  S
C2279      H2285   1.105       .  S
C2282      H2286   1.111       .  S
C2282      H2288   1.110       .  S
C2289      C2290   1.408   1_655  A
C2289      C2294   1.412       .  A
C2289      H2296   1.084       .  S
C2291      C2298   1.509       .  S
C2291      C2292   1.383       .  A
C2292      H2297   1.085       .  S
C2293      C2294   1.416       .  A
C2294      C2295   1.504       .  S
C2295      H2299   1.111       .  S
C2295      H2300   1.110       .  S
C2295      H2301   1.104       .  S
C2298      H2302   1.103       .  S
C2298      H2303   1.110       .  S
C2298      H2304   1.109       .  S
C2305      C2306   1.392       .  A
C2305      C2310   1.411       .  A
C2305      H2312   1.084       .  S
C2306      C2307   1.414       .  A
C2307      C2314   1.505       .  S
C2307      C2308   1.421       .  A
C2308      C2309   1.421       .  A
C2308      H2313   1.077       .  S
C2309      C2310   1.460       .  A
C2310      C2311   1.520       .  S
C2311      H2315   1.102       .  S
C2311      H2316   1.101       .  S
C2311      H2317   1.111       .  S
C2314      H2318   1.107       .  S
C2314      H2319   1.110       .  S
C2314      H2320   1.110       .  S
C2321      C2322   1.387       .  A
C2321      C2326   1.403       .  A
C2321      H2328   1.085       .  S
C2322      C2323   1.412       .  A
C2323      C2330   1.503       .  S
C2323      C2324   1.421       .  A
C2324      C2325   1.423       .  A
C2324      H2329   1.079       .  S
C2325      C2326   1.448       .  A
C2326      C2327   1.512       .  S
C2327      H2331   1.111       .  S
C2327      H2332   1.100       .  S
C2327      H2333   1.102       .  S
C2330      H2334   1.110       .  S
C2330      H2335   1.109       .  S
C2330      H2336   1.111       .  S
C2337      C2338   1.411       .  A
C2337      C2342   1.406       .  A
C2337      H2344   1.084       .  S
C2338      C2339   1.418       .  A
C2339      C2346   1.507       .  S
C2339      C2340   1.407       .  A
C2340      C2341   1.409       .  A
C2340      H2345   1.085       .  S
C2341      C2342   1.413       .  A
C2342      C2343   1.504       .  S
C2343      H2347   1.111       .  S
C2343      H2348   1.110       .  S
C2343      H2349   1.107       .  S
C2346      H2350   1.100       .  S
C2346      H2351   1.110       .  S
C2346      H2352   1.110       .  S
C2353      C2354   1.405       .  A
C2353      C2358   1.397       .  A
C2353      H2360   1.085       .  S
C2354      C2355   1.410       .  A
C2355      C2362   1.506       .  S
C2355      C2356   1.401       .  A
C2356      C2357   1.408       .  A
C2356      H2361   1.084       .  S
C2357      C2358   1.413       .  A
C2358      C2359   1.509       .  S
C2359      H2363   1.111       .  S
C2359      H2364   1.109       .  S
C2359      H2365   1.103       .  S
C2362      H2366   1.110       .  S
C2362      H2367   1.104   1_554  S
C2362      H2368   1.108       .  S
C2369      C2370   1.408       .  A
C2369      C2374   1.399       .  A
C2369      H2376   1.085       .  S
C2370      C2371   1.410       .  A
C2371      C2378   1.506       .  S
C2371      C2372   1.398       .  A
C2372      C2373   1.404       .  A
C2372      H2377   1.082       .  S
C2373      C2374   1.412       .  A
C2374      C2375   1.510       .  S
C2375      H2379   1.111       .  S
C2375      H2380   1.108       .  S
C2375      H2381   1.111       .  S
C2378      H2382   1.104   1_556  S
C2378      H2383   1.110       .  S
C2378      H2384   1.111       .  S
C2385      C2386   1.395       .  A
C2385      C2390   1.405       .  A
C2385      H2392   1.084       .  S
C2386      C2387   1.418       .  A
C2387      C2394   1.510       .  S
C2387      C2388   1.403       .  A
C2388      C2389   1.406       .  A
C2388      H2393   1.083       .  S
C2389      C2390   1.421       .  A
C2390      C2391   1.495       .  S
C2391      H2395   1.111       .  S
C2391      H2396   1.110       .  S
C2391      H2397   1.111       .  S
C2394      H2398   1.110       .  S
C2394      H2399   1.108       .  S
C2394      H2400   1.111       .  S
C2401      C2406   1.411       .  A
C2401      H2408   1.085       .  S
C2402      C2403   1.414       .  A
C2403      C2410   1.502       .  S
C2403      C2404   1.422       .  A
C2404      C2405   1.425       .  A
C2404      H2409   1.078       .  S
C2406      C2407   1.511       .  S
C2407      H2411   1.111       .  S
C2407      H2412   1.110   1_455  S
C2407      H2413   1.098       .  S
C2410      H2414   1.111       .  S
C2410      H2415   1.107       .  S
C2410      H2416   1.111       .  S
C2417      C2422   1.415       .  A
C2417      H2424   1.083       .  S
C2418      C2419   1.462       .  A
C2419      C2426   1.521       .  S
C2419      C2420   1.406       .  A
C2420      C2421   1.384       .  A
C2420      H2425   1.087       .  S
C2422      C2423   1.505       .  S
C2423      H2427   1.111       .  S
C2423      H2428   1.111       .  S
C2423      H2429   1.110       .  S
C2426      H2430   1.100       .  S
C2426      H2431   1.103       .  S
C2426      H2432   1.111       .  S
C2433      C2434   1.428       .  A
C2433      C2438   1.410       .  A
C2433      H2440   1.077       .  S
C2434      C2435   1.443       .  A
C2435      C2442   1.506       .  S
C2435      C2436   1.422       .  A
C2436      C2437   1.407       .  A
C2436      H2441   1.085       .  S
C2437      C2438   1.408       .  A
C2438      C2439   1.497       .  S
C2439      H2443   1.111       .  S
C2439      H2444   1.109       .  S
C2439      H2445   1.109       .  S
C2442      H2446   1.111       .  S
C2442      H2447   1.091       .  S
C2442      H2448   1.110       .  S
C2449      C2450   1.424       .  A
C2449      C2454   1.421       .  A
C2449      H2456   1.077       .  S
C2450      C2451   1.446       .  A
C2451      C2458   1.515       .  S
C2451      C2452   1.408       .  A
C2452      C2453   1.394       .  A
C2452      H2457   1.084       .  S
C2453      C2454   1.410       .  A
C2454      C2455   1.505       .  S
C2455      H2459   1.111       .  S
C2455      H2460   1.111       .  S
C2455      H2461   1.110       .  S
C2458      H2462   1.108       .  S
C2458      H2463   1.111       .  S
C2458      H2464   1.107       .  S
C2465      C2466   1.414       .  A
C2465      C2470   1.432       .  A
C2465      H2472   1.084       .  S
C2467      C2474   1.510       .  S
C2467      C2468   1.418       .  A
C2468      H2473   1.076       .  S
C2469      C2470   1.441       .  A
C2470      C2471   1.505       .  S
C2471      H2475   1.110       .  S
C2471      H2477   1.095       .  S
C2474      H2478   1.111       .  S
C2474      H2480   1.111       .  S
C2481      C2482   1.407       .  A
C2481      C2486   1.418       .  A
C2482      C2483   1.458       .  A
C2483      C2490   1.511       .  S
C2483      C2484   1.413       .  A
C2484      C2485   1.387       .  A
C2484      H2489   1.084       .  S
C2485      C2486   1.433       .  A
C2487      H2491   1.111       .  S
C2487      H2493   1.109   1_545  S
C2490      H2494   1.100       .  S
C2490      H2496   1.102       .  S
C2497      C2498   1.401       .  A
C2497      C2502   1.419       .  A
C2497      H2504   1.085       .  S
C2498      C2499   1.405       .  A
C2499      C2506   1.509       .  S
C2499      C2500   1.387       .  A
C2500      C2501   1.419       .  A
C2500      H2505   1.085       .  S
C2501      C2502   1.446       .  A
C2502      C2503   1.511       .  S
C2503      H2507   1.111       .  S
C2503      H2508   1.110       .  S
C2503      H2509   1.090       .  S
C2506      H2510   1.110       .  S
C2506      H2511   1.104       .  S
C2506      H2512   1.109       .  S
C2513      C2514   1.432       .  A
C2513      C2518   1.398       .  A
C2513      H2520   1.077       .  S
C2514      C2515   1.436       .  A
C2515      C2522   1.509       .  S
C2515      C2516   1.408       .  A
C2516      C2517   1.398       .  A
C2516      H2521   1.085       .  S
C2517      C2518   1.395       .  A
C2518      C2519   1.509       .  S
C2519      H2523   1.111       .  S
C2519      H2524   1.110       .  S
C2519      H2525   1.110       .  S
C2522      H2526   1.103       .  S
C2522      H2527   1.107       .  S
C2522      H2528   1.111       .  S
C2529      C2530   1.400       .  A
C2529      C2534   1.394       .  A
C2529      H2536   1.081       .  S
C2530      C2531   1.409       .  A
C2531      C2538   1.507       .  S
C2531      C2532   1.398       .  A
C2532      C2533   1.402       .  A
C2532      H2537   1.081       .  S
C2533      C2534   1.408       .  A
C2534      C2535   1.501       .  S
C2535      H2539   1.111       .  S
C2535      H2540   1.108       .  S
C2535      H2541   1.108       .  S
C2538      H2542   1.109       .  S
C2538      H2543   1.110       .  S
C2538      H2544   1.109       .  S
C2545      C2546   1.399       .  A
C2545      C2550   1.401       .  A
C2545      H2552   1.084       .  S
C2546      C2547   1.412       .  A
C2547      C2554   1.508       .  S
C2547      C2548   1.400       .  A
C2548      C2549   1.407       .  A
C2548      H2553   1.083       .  S
C2549      C2550   1.421       .  A
C2550      C2551   1.511       .  S
C2551      H2555   1.111       .  S
C2551      H2556   1.106       .  S
C2551      H2557   1.110       .  S
C2554      H2558   1.105       .  S
C2554      H2559   1.110       .  S
C2554      H2560   1.111       .  S
C2561      C2562   1.399       .  A
C2561      C2566   1.396       .  A
C2561      H2568   1.085       .  S
C2562      C2563   1.413       .  A
C2563      C2570   1.506       .  S
C2563      C2564   1.397       .  A
C2564      C2565   1.396       .  A
C2564      H2569   1.074       .  S
C2565      C2566   1.416       .  A
C2566      C2567   1.506       .  S
C2567      H2571   1.111       .  S
C2567      H2572   1.109       .  S
C2567      H2573   1.102       .  S
C2570      H2574   1.110       .  S
C2570      H2575   1.107       .  S
C2570      H2576   1.111       .  S
C2577      C2578   1.399       .  A
C2577      C2582   1.399       .  A
C2577      H2584   1.083       .  S
C2578      C2579   1.412       .  A
C2579      C2586   1.505       .  S
C2579      C2580   1.408       .  A
C2580      C2581   1.405       .  A
C2580      H2585   1.082       .  S
C2581      C2582   1.411       .  A
C2582      C2583   1.498       .  S
C2583      H2587   1.111       .  S
C2583      H2588   1.104       .  S
C2583      H2589   1.109       .  S
C2586      H2590   1.108   1_556  S
C2586      H2591   1.111       .  S
C2586      H2592   1.111       .  S
C2593      C2594   1.401       .  A
C2593      C2598   1.411       .  A
C2593      H2600   1.084       .  S
C2594      C2595   1.422       .  A
C2595      C2602   1.508       .  S
C2595      C2596   1.416       .  A
C2596      C2597   1.418       .  A
C2596      H2601   1.076       .  S
C2597      C2598   1.443       .  A
C2598      C2599   1.514       .  S
C2599      H2603   1.111       .  S
C2599      H2605   1.103   1_545  S
C2602      H2607   1.109   1_545  S
C2602      H2608   1.111       .  S
C2609      C2610   1.403       .  A
C2610      C2611   1.397       .  A
C2611      C2618   1.510       .  S
C2611      C2612   1.400       .  A
C2612      C2613   1.437       .  A
C2612      H2617   1.076       .  S
C2614      C2615   1.503       .  S
C2615      H2619   1.111       .  S
C2615      H2621   1.089       .  S
C2618      H2622   1.110       .  S
C2618      H2624   1.111       .  S
C2625      C2626   1.401       .  A
C2625      C2630   1.419       .  A
C2625      H2632   1.083       .  S
C2626      C2627   1.401       .  A
C2627      C2634   1.512       .  S
C2627      C2628   1.395       .  A
C2628      C2629   1.429       .  A
C2628      H2633   1.081       .  S
C2629      C2630   1.441       .  A
C2630      C2631   1.507       .  S
C2631      H2635   1.111       .  S
C2631      H2636   1.110       .  S
C2631      H2637   1.098       .  S
C2634      H2638   1.110       .  S
C2634      H2639   1.109       .  S
C2634      H2640   1.111       .  S
C2641      C2642   1.394       .  A
C2641      C2646   1.417       .  A
C2641      H2648   1.085       .  S
C2642      C2643   1.412       .  A
C2643      C2650   1.506       .  S
C2643      C2644   1.419       .  A
C2644      C2645   1.425       .  A
C2644      H2649   1.083       .  S
C2645      C2646   1.459       .  A
C2646      C2647   1.520       .  S
C2647      H2651   1.111       .  S
C2647      H2652   1.102       .  S
C2647      H2653   1.103       .  S
C2650      H2654   1.110       .  S
C2650      H2655   1.109       .  S
C2650      H2656   1.111       .  S
