geometry optimzed in LAMMPS
_audit_creation_date              2020-12-01 
_audit_creation_method            'lammps2cif' 
_symmetry_space_group_name_H-M    'P1' 
_symmetry_Int_Tables_number       1 
_symmetry_cell_setting            triclinic 
loop_ 
_symmetry_equiv_pos_as_xyz 
  x,y,z 
_cell_length_a                    47.31162393 
_cell_length_b                    47.28377583617809 
_cell_length_c                    34.89803206094231 
_cell_angle_alpha                 90.22781976070708 
_cell_angle_beta                  90.1142331889711 
_cell_angle_gamma                 120.26742707184019 
loop_ 
_atom_site_label 
_atom_site_type_symbol 
_atom_site_fract_x 
_atom_site_fract_y 
_atom_site_fract_z 
_atom_site_charge 
Zn1        Zn  0.43463364  0.18521406  0.96313917     1.49700
Zn2        Zn  0.38969533  0.19374015  0.02607003     1.49400
Zn3        Zn  0.46747348  0.23916498  0.02926361     1.49100
Zn4        Zn  0.42955581  0.25002396  0.96211161     1.49500
O5          O  0.42993615  0.21681444  0.99514524    -1.84000
O6          O  0.40045863  0.13935519  0.97711520    -0.74600
O7          O  0.40083034  0.19974116  0.08320194    -0.74400
O8          O  0.49752481  0.22135245  0.02219325    -0.74000
O9          O  0.36533921  0.14414197  0.01501711    -0.74600
O10         O  0.47873413  0.18856227  0.97130219    -0.74200
O11         O  0.45443552  0.23464089  0.08432183    -0.74800
O12         O  0.47083778  0.29497030  0.96769293    -0.74200
O13         O  0.36092878  0.21401458  0.01639868    -0.75000
O14         O  0.49435669  0.28714330  0.01842237    -0.74400
O15         O  0.38968920  0.25344231  0.97408880    -0.74800
O16         O  0.42630112  0.23707617  0.90685716    -0.74700
O17         O  0.42825868  0.19108483  0.90676043    -0.74500
C18         C  0.37416964  0.12646576  0.99657585     0.77300
C19         C  0.42740090  0.21763332  0.10158079     0.77800
C20         C  0.50018662  0.20292429  0.99752590     0.76700
C21         C  0.49376142  0.30566324  0.99253828     0.77100
C22         C  0.36475131  0.23786653  0.99554989     0.78200
C23         C  0.42567337  0.21322165  0.88907841     0.77300
Zn24       Zn  0.42744748  0.25388728  0.46501180     1.49700
Zn25       Zn  0.42419610  0.18518338  0.46316428     1.49400
Zn26       Zn  0.45696918  0.23325693  0.53404906     1.49100
Zn27       Zn  0.37894929  0.19616909  0.52348793     1.49500
O28         O  0.42156670  0.21708030  0.49652627    -1.84000
O29         O  0.43060842  0.24571982  0.40863298    -0.74600
O30         O  0.46537868  0.18313519  0.47327649    -0.74400
O31         O  0.48765991  0.28150660  0.52848315    -0.74000
O32         O  0.42365878  0.19565537  0.40725633    -0.74600
O33         O  0.46861002  0.29668763  0.47939878    -0.74200
O34         O  0.48468229  0.21233017  0.52674523    -0.74800
O35         O  0.38566394  0.19986221  0.58137756    -0.74200
O36         O  0.38574780  0.14049195  0.47230607    -0.75000
O37         O  0.43985988  0.22586441  0.58773201    -0.74400
O38         O  0.35277994  0.14718849  0.51183679    -0.74800
O39         O  0.35278206  0.21826263  0.50847787    -0.74700
O40         O  0.38774037  0.25865127  0.47074617    -0.74500
C41         C  0.42745944  0.22103937  0.39007075     0.77300
C42         C  0.48632990  0.19445571  0.50043274     0.77800
C43         C  0.48999049  0.30341310  0.50553188     0.76700
C44         C  0.41136659  0.21238838  0.60220711     0.77100
C45         C  0.35941722  0.12875974  0.49159855     0.78200
C46         C  0.36013845  0.24315639  0.48756491     0.77300
Zn47       Zn  0.19583969  0.81173189  0.97783677     1.49700
Zn48       Zn  0.23471811  0.77263998  0.96704717     1.49400
Zn49       Zn  0.25308079  0.82142048  0.03562389     1.49100
Zn50       Zn  0.18625381  0.75419196  0.03649131     1.49500
O51         O  0.21692519  0.78994939  0.00407153    -1.84000
O52         O  0.19799652  0.80789523  0.91950336    -0.74600
O53         O  0.28294846  0.79056145  0.97456143    -0.74400
O54         O  0.26505404  0.86707035  0.02038844    -0.74000
O55         O  0.22697909  0.78294191  0.91433733    -0.74600
O56         O  0.22101067  0.86116144  0.98971463    -0.74200
O57         O  0.29309841  0.81675817  0.03024307    -0.74800
O58         O  0.19670940  0.76582017  0.09259454    -0.74200
O59         O  0.21525169  0.72401187  0.97216924    -0.75000
O60         O  0.24090104  0.81536667  0.09127630    -0.74400
O61         O  0.18536889  0.71123093  0.02495290    -0.74800
O62         O  0.14163755  0.74812253  0.02825257    -0.74700
O63         O  0.14740124  0.78970279  0.99262901    -0.74500
C64         C  0.21231829  0.79644715  0.89908361     0.77300
C65         C  0.30193662  0.80524597  0.00273636     0.77800
C66         C  0.24954315  0.87929952  0.00409716     0.76700
C67         C  0.21849602  0.79145029  0.10981846     0.77100
C68         C  0.19778638  0.70322878  0.99748662     0.78200
C69         C  0.12956633  0.76379049  0.01196505     0.77300
Zn70       Zn  0.25269584  0.82869402  0.47237071     1.49700
Zn71       Zn  0.23975153  0.78124336  0.54088007     1.49400
Zn72       Zn  0.19541724  0.81534522  0.53320542     1.49100
Zn73       Zn  0.18769783  0.75925777  0.47288328     1.49500
O74         O  0.21851974  0.79617309  0.50502092    -1.84000
O75         O  0.29702207  0.83307045  0.48161496    -0.74600
O76         O  0.23053475  0.78885640  0.59435669    -0.74400
O77         O  0.21599679  0.86430334  0.52039128    -0.74000
O78         O  0.28896175  0.80385179  0.53419437    -0.74600
O79         O  0.25631193  0.87202576  0.48123670    -0.74200
O80         O  0.19975388  0.81198007  0.59108487    -0.74800
O81         O  0.14217597  0.75073994  0.48194184    -0.74200
O82         O  0.22304264  0.73303437  0.53395195    -0.75000
O83         O  0.14612195  0.79002636  0.52073263    -0.74400
O84         O  0.18858258  0.71760380  0.48472746    -0.74800
O85         O  0.19709684  0.76913983  0.41633028    -0.74700
O86         O  0.24211173  0.81800060  0.41675744    -0.74500
C87         C  0.30776144  0.82235108  0.50794833     0.77300
C88         C  0.21480098  0.80083608  0.61060922     0.77800
C89         C  0.24066849  0.88304386  0.49967553     0.76700
C90         C  0.12893705  0.76435737  0.50037986     0.77100
C91         C  0.20370050  0.71112390  0.51035791     0.78200
C92         C  0.21955503  0.79368248  0.39859580     0.77300
Zn93       Zn  0.82758279  0.57614069  0.03242556     1.49700
Zn94       Zn  0.77875231  0.54558720  0.96211194     1.49400
Zn95       Zn  0.76115059  0.57632752  0.03240959     1.49100
Zn96       Zn  0.81846931  0.62443691  0.97451653     1.49500
O97         O  0.79670664  0.58098827  0.00007128    -1.84000
O98         O  0.82908180  0.53508882  0.01990043    -0.74600
O99         O  0.72941566  0.51679907  0.96624870    -0.74400
O100        O  0.77059944  0.57572693  0.08873177    -0.74000
O101        O  0.79687960  0.51524158  0.96879826    -0.74600
O102        O  0.81683983  0.57460897  0.08840374    -0.74200
O103        O  0.71886684  0.53496207  0.01996643    -0.74800
O104        O  0.79445311  0.64954814  0.98675053    -0.74200
O105        O  0.79027202  0.56439837  0.90952518    -0.75000
O106        O  0.75406947  0.61402362  0.02383293    -0.74400
O107        O  0.81731432  0.61853923  0.91645101    -0.74800
O108        O  0.86697513  0.65099799  0.99004040    -0.74700
O109        O  0.87211024  0.61507926  0.02600748    -0.74500
C110        C  0.81575798  0.51353003  0.99356925     0.77300
C111        C  0.70953969  0.51451665  0.99229590     0.77800
C112        C  0.79368451  0.57491021  0.10653542     0.76700
C113        C  0.76850506  0.64117447  0.00610327     0.77100
C114        C  0.80535385  0.59301248  0.89522315     0.78200
C115        C  0.88450417  0.64293901  0.00993836     0.77300
Zn116      Zn  0.81579242  0.62493099  0.52792089     1.49700
Zn117      Zn  0.82533398  0.57690546  0.47010798     1.49400
Zn118      Zn  0.77594470  0.54683956  0.53903595     1.49100
Zn119      Zn  0.75767983  0.57611500  0.46911877     1.49500
O120        O  0.79393999  0.58167378  0.50153711    -1.84000
O121        O  0.86466693  0.65171537  0.51383558    -0.74600
O122        O  0.82695907  0.53586065  0.48246507    -0.74400
O123        O  0.78654997  0.56482430  0.59200856    -0.74000
O124        O  0.87009573  0.61573558  0.47801151    -0.74600
O125        O  0.81483387  0.61887525  0.58591097    -0.74200
O126        O  0.79452344  0.51747455  0.53307737    -0.74800
O127        O  0.71541018  0.53313702  0.47905822    -0.74200
O128        O  0.81453488  0.57537445  0.41422601    -0.75000
O129        O  0.72730975  0.51726722  0.53338209    -0.74400
O130        O  0.76861652  0.57729600  0.41273368    -0.74800
O131        O  0.74877355  0.61247801  0.48136122    -0.74700
O132        O  0.79069283  0.64908354  0.51683842    -0.74500
C133        C  0.88247559  0.64347380  0.49477658     0.77300
C134        C  0.81345095  0.51506269  0.50919554     0.77800
C135        C  0.80231419  0.59332771  0.60676109     0.76700
C136        C  0.70693816  0.51332507  0.50708058     0.77100
C137        C  0.79178374  0.57613230  0.39554622     0.78200
C138        C  0.76339111  0.63957036  0.49969932     0.77300
Zn139      Zn  0.54680014  0.76966002  0.04214796     1.49700
Zn140      Zn  0.62568218  0.81135028  0.03321558     1.49400
Zn141      Zn  0.58021159  0.75391012  0.97377313     1.49100
Zn142      Zn  0.57888441  0.82008155  0.97330065     1.49500
O143        O  0.58316116  0.78903253  0.00587026    -1.84000
O144        O  0.56403041  0.77822082  0.09581436    -0.74600
O145        O  0.65242761  0.78944582  0.02044413    -0.74400
O146        O  0.53692181  0.71216408  0.98022178    -0.74000
O147        O  0.61822187  0.80711954  0.09103024    -0.74600
O148        O  0.51730816  0.72061751  0.03408579    -0.74200
O149        O  0.61642316  0.74519048  0.98755131    -0.74800
O150        O  0.58135007  0.81101180  0.91709858    -0.74200
O151        O  0.65112956  0.86049083  0.02117875    -0.75000
O152        O  0.58429986  0.76566142  0.91784125    -0.74400
O153        O  0.61612471  0.86566478  0.98340925    -0.74800
O154        O  0.53604307  0.81876118  0.98318352    -0.74700
O155        O  0.51705555  0.78852007  0.03565965    -0.74500
C156        C  0.59231519  0.79325214  0.11129165     0.77300
C157        C  0.64394244  0.76194802  0.00443481     0.77800
C158        C  0.51528422  0.70209114  0.00633260     0.76700
C159        C  0.58389835  0.78872223  0.89957234     0.77100
C160        C  0.64320412  0.87826435  0.00163529     0.78200
C161        C  0.51471662  0.80604626  0.00961892     0.77300
Zn162      Zn  0.57724054  0.82316633  0.53858439     1.49700
Zn163      Zn  0.62322093  0.81199178  0.47963621     1.49400
Zn164      Zn  0.57420561  0.75488787  0.53585281     1.49100
Zn165      Zn  0.54460115  0.77599510  0.46799124     1.49500
O166        O  0.58008625  0.79158620  0.50521827    -1.84000
O167        O  0.61294530  0.86801294  0.52429792    -0.74600
O168        O  0.64808240  0.78804687  0.49331406    -0.74400
O169        O  0.57830965  0.76612278  0.59210894    -0.74000
O170        O  0.64951682  0.86118199  0.49156649    -0.74600
O171        O  0.58284031  0.81517900  0.59432407    -0.74200
O172        O  0.60943769  0.74439921  0.52377048    -0.74800
O173        O  0.51387002  0.72702284  0.47195663    -0.74200
O174        O  0.61669702  0.80851001  0.42144939    -0.75000
O175        O  0.53046219  0.71424018  0.52537371    -0.74400
O176        O  0.56280304  0.78567579  0.41507448    -0.74800
O177        O  0.51687003  0.79709070  0.47610291    -0.74700
O178        O  0.53453856  0.82309328  0.53178961    -0.74500
C179        C  0.64018861  0.87966234  0.50694585     0.77300
C180        C  0.63771555  0.76000623  0.50864095     0.77800
C181        C  0.58223564  0.79095844  0.61106053     0.76700
C182        C  0.51023955  0.70640610  0.49765396     0.77100
C183        C  0.59118565  0.79788958  0.40041797     0.78200
C184        C  0.51442732  0.81341763  0.50377013     0.77300
Zn185      Zn  0.77843228  0.23482290  0.03108757     1.49700
Zn186      Zn  0.75817689  0.18138759  0.96511151     1.49400
Zn187      Zn  0.82626158  0.24786137  0.96191974     1.49100
Zn188      Zn  0.81507956  0.19392999  0.02676068     1.49500
O189        O  0.79464681  0.21415984  0.99621385    -1.84000
O190        O  0.73089313  0.21715338  0.02270999    -0.74600
O191        O  0.76751977  0.18970635  0.90854068    -0.74400
O192        O  0.82675777  0.29099827  0.96824894    -0.74000
O193        O  0.71564068  0.18093137  0.97534153    -0.74600
O194        O  0.79961574  0.28327724  0.02270691    -0.74200
O195        O  0.81656826  0.23453035  0.90624830    -0.74800
O196        O  0.86416896  0.21694617  0.01573723    -0.74200
O197        O  0.75159985  0.13682944  0.97666504    -0.75000
O198        O  0.87100894  0.25503674  0.97332990    -0.74400
O199        O  0.79173829  0.14421261  0.01627895    -0.74800
O200        O  0.81096653  0.19974415  0.08397997    -0.74700
O201        O  0.78387554  0.22677010  0.08588352    -0.74500
C202        C  0.70908856  0.19678187  0.99990110     0.77300
C203        C  0.79172755  0.21128027  0.88953236     0.77800
C204        C  0.81614553  0.30153078  0.99504900     0.76700
C205        C  0.88255089  0.24123907  0.99438519     0.77100
C206        C  0.76623121  0.12536696  0.99642342     0.78200
C207        C  0.79739812  0.21285640  0.10273473     0.77300
Zn208      Zn  0.76566160  0.22904672  0.53247031     1.49700
Zn209      Zn  0.80751717  0.19308779  0.52331949     1.49400
Zn210      Zn  0.75026012  0.18217514  0.46204186     1.49100
Zn211      Zn  0.81739849  0.24974076  0.46544779     1.49500
O212        O  0.78538540  0.21323367  0.49588058    -1.84000
O213        O  0.77139167  0.21839524  0.58598626    -0.74600
O214        O  0.78395701  0.14397893  0.51067781    -0.74400
O215        O  0.70680918  0.18062232  0.47026756    -0.74000
O216        O  0.80410356  0.19744238  0.58134217    -0.74600
O217        O  0.71768894  0.21031973  0.52321244    -0.74200
O218        O  0.74310259  0.13746893  0.47272932    -0.74800
O219        O  0.81024816  0.23945748  0.40905083    -0.74200
O220        O  0.85673448  0.21608073  0.51073930    -0.75000
O221        O  0.76271139  0.19262463  0.40643768    -0.74400
O222        O  0.86230747  0.25801790  0.47646823    -0.74800
O223        O  0.81711644  0.29155878  0.47714247    -0.74700
O224        O  0.78552247  0.27758301  0.52865154    -0.74500
C225        C  0.78789790  0.20698927  0.60138582     0.77300
C226        C  0.75785019  0.12561920  0.49152383     0.77800
C227        C  0.69774734  0.19260853  0.49709099     0.76700
C228        C  0.78748318  0.21595906  0.39005341     0.77100
C229        C  0.87475450  0.24289957  0.49305338     0.78200
C230        C  0.80418560  0.29894134  0.50452826     0.77300
Zn231      Zn  0.23514537  0.45815571  0.95950281     1.49700
Zn232      Zn  0.19559618  0.38004682  0.96595692     1.49400
Zn233      Zn  0.25103613  0.42442809  0.02833402     1.49100
Zn234      Zn  0.18337171  0.42485970  0.02650045     1.49500
O235        O  0.21611581  0.42156616  0.99514882    -1.84000
O236        O  0.22726328  0.44257138  0.90509057    -0.74600
O237        O  0.21807569  0.35373524  0.97781105    -0.74400
O238        O  0.29451045  0.46616909  0.01883834    -0.74000
O239        O  0.20010689  0.38836422  0.90879916    -0.74600
O240        O  0.28356061  0.48655694  0.96747091    -0.74200
O241        O  0.25667591  0.38512041  0.02019796    -0.74800
O242        O  0.19280377  0.42449432  0.08270062    -0.74200
O243        O  0.14651932  0.35401694  0.97644420    -0.75000
O244        O  0.23993384  0.42489887  0.08377824    -0.74400
O245        O  0.13844933  0.38597475  0.01673082    -0.74800
O246        O  0.18267277  0.46701312  0.01587349    -0.74700
O247        O  0.21706966  0.48821905  0.96723222    -0.74500
C248        C  0.21324194  0.41450284  0.88906103     0.77300
C249        C  0.24214118  0.35933419  0.99952264     0.77800
C250        C  0.30351401  0.48794334  0.99292772     0.76700
C251        C  0.21619557  0.42474879  0.10109768     0.77100
C252        C  0.12759628  0.36000755  0.99655972     0.78200
C253        C  0.19745758  0.48953913  0.99111605     0.77300
Zn254      Zn  0.24571258  0.42802322  0.46193485     1.49700
Zn255      Zn  0.18019732  0.43120344  0.46417372     1.49400
Zn256      Zn  0.18914503  0.38194606  0.52164946     1.49100
Zn257      Zn  0.23225944  0.46023380  0.53219568     1.49500
O258        O  0.21131824  0.42486249  0.49505691    -1.84000
O259        O  0.23437952  0.42838426  0.40732428    -0.74600
O260        O  0.13483947  0.39378459  0.47415499    -0.74400
O261        O  0.20975427  0.35416455  0.50638850    -0.74000
O262        O  0.18881259  0.43089211  0.40697085    -0.74600
O263        O  0.25030636  0.38867617  0.46864720    -0.74200
O264        O  0.13978773  0.35766899  0.50997998    -0.74800
O265        O  0.22487104  0.44294914  0.58522676    -0.74200
O266        O  0.18161185  0.47404433  0.47796647    -0.75000
O267        O  0.19440038  0.38888213  0.57967876    -0.74400
O268        O  0.21476039  0.49070610  0.52845813    -0.74800
O269        O  0.28065396  0.48892275  0.52367870    -0.74700
O270        O  0.28948541  0.46933094  0.47014423    -0.74500
C271        C  0.21173385  0.42967562  0.38926236     0.77300
C272        C  0.12207808  0.36644473  0.49160534     0.77800
C273        C  0.23463536  0.36120288  0.48555797     0.76700
C274        C  0.20946254  0.41470303  0.60029186     0.77100
C275        C  0.19624992  0.49449678  0.50515018     0.78200
C276        C  0.29954645  0.49077365  0.49671165     0.77300
C277        C  0.21227628  0.41258216  0.84665199    -0.01200
C278        C  0.19505279  0.38245104  0.82738287    -0.09200
C279        C  0.19383264  0.38103443  0.78730626    -0.18000
C280        C  0.20994746  0.40990579  0.76515654     0.04400
C281        C  0.22759015  0.44030776  0.78500978     0.18600
C282        C  0.22857163  0.44133674  0.82511052    -0.19400
C283        C  0.24415387  0.46969422  0.76482309    -0.20700
C284        C  0.24355108  0.46967844  0.72513299    -0.19200
C285        C  0.22635212  0.44027614  0.70465573     0.20000
C286        C  0.20925991  0.40989234  0.72416295     0.02100
C287        C  0.19226011  0.38102864  0.70168018    -0.14000
C288        C  0.19232698  0.38243131  0.66158932    -0.11700
C289        C  0.20927906  0.41253506  0.64267758     0.01600
C290        C  0.22620983  0.44128259  0.66459821    -0.23900
H291        H  0.18226248  0.35983041  0.84331790     0.09600
H292        H  0.18005209  0.35702968  0.77453142     0.13200
H293        H  0.24212337  0.46482365  0.83958761     0.11900
H294        H  0.25765232  0.49290805  0.77985373     0.13100
H295        H  0.25661237  0.49288687  0.71032820     0.12100
H296        H  0.17865095  0.35704249  0.71420741     0.09200
H297        H  0.17898577  0.35984873  0.64537922     0.12500
H298        H  0.23943295  0.46480421  0.65045868     0.14400
C299        C  0.21275450  0.42980633  0.34690960    -0.01200
C300        C  0.24194530  0.43719150  0.32844119    -0.09200
C301        C  0.24362880  0.43662339  0.28867639    -0.18000
C302        C  0.21588832  0.42834295  0.26569980     0.04400
C303        C  0.18626204  0.42091775  0.28446912     0.18600
C304        C  0.18499659  0.42190237  0.32471251    -0.19400
C305        C  0.15806269  0.41241270  0.26295442    -0.20700
C306        C  0.15869000  0.41139608  0.22314737    -0.19200
C307        C  0.18752246  0.41882356  0.20385657     0.20000
C308        C  0.21651508  0.42720486  0.22483541     0.02100
C309        C  0.24486721  0.43408668  0.20395548    -0.14000
C310        C  0.24447264  0.43295497  0.16404106    -0.11700
C311        C  0.21599673  0.42514100  0.14346674     0.01600
C312        C  0.18754937  0.41800298  0.16361415    -0.23900
H313        H  0.26385190  0.44359440  0.34485411     0.09600
H314        H  0.26704885  0.44273627  0.27693881     0.13200
H315        H  0.16225556  0.41598789  0.33875231     0.11900
H316        H  0.13536223  0.40657629  0.27701179     0.13100
H317        H  0.13646058  0.40483187  0.20732028     0.12100
H318        H  0.26781404  0.44047980  0.21748622     0.09200
H319        H  0.26680281  0.43862430  0.14921071     0.12500
H320        H  0.16528765  0.41167350  0.14796345     0.14400
C321        C  0.91097560  0.25772597  0.49159039    -0.01200
C322        C  0.92720420  0.24346436  0.50973458    -0.09200
C323        C  0.96154268  0.25896112  0.50933210    -0.18000
C324        C  0.98078083  0.28942170  0.49076278     0.04400
C325        C  0.96398978  0.30317776  0.47165014     0.18600
C326        C  0.92976359  0.28741137  0.47222527    -0.19400
C327        C  0.98136656  0.33293333  0.45231237    -0.20700
C328        C  0.01525823  0.34975203  0.45186313    -0.19200
C329        C  0.03269155  0.33739696  0.47098993     0.20000
C330        C  0.01592038  0.30704373  0.49066984     0.02100
C331        C  0.03517990  0.29621183  0.50979867    -0.14000
C332        C  0.06952766  0.31507060  0.50981447    -0.11700
C333        C  0.08577819  0.34515284  0.49060679     0.01600
C334        C  0.06695928  0.35576376  0.47092921    -0.23900
H335        H  0.91336950  0.22043601  0.52465755     0.09600
H336        H  0.97237457  0.24668917  0.52399001     0.13200
H337        H  0.91773517  0.29876460  0.45775722     0.11900
H338        H  0.96863423  0.34343229  0.43759704     0.13100
H339        H  0.02795400  0.37286374  0.43680504     0.12100
H340        H  0.02436408  0.27351561  0.52539997     0.09200
H341        H  0.08336830  0.30619587  0.52525747     0.12500
H342        H  0.07900560  0.37890980  0.45586679     0.14400
C343        C  0.91826135  0.25429569  0.99363472    -0.01200
C344        C  0.93534051  0.26682374  0.95939511    -0.09200
C345        C  0.96931556  0.28142020  0.95819791    -0.18000
C346        C  0.98760565  0.28478612  0.99170387     0.04400
C347        C  0.97025745  0.27269924  0.02666718     0.18600
C348        C  0.93580135  0.25678539  0.02714475    -0.19400
C349        C  0.98750041  0.27764009  0.06105740    -0.20700
C350        C  0.02159171  0.29534799  0.06164939    -0.19200
C351        C  0.03931251  0.30734119  0.02764988     0.20000
C352        C  0.02254747  0.30096514  0.99198759     0.02100
C353        C  0.04152998  0.31126774  0.95817657    -0.14000
C354        C  0.07568524  0.32887724  0.95991264    -0.11700
C355        C  0.09195234  0.33727253  0.99522136     0.01600
C356        C  0.07371816  0.32610273  0.02902860    -0.23900
H357        H  0.92227956  0.26546377  0.93327208     0.09600
H358        H  0.98064557  0.29095125  0.93088148     0.13200
H359        H  0.92274729  0.24781977  0.05392494     0.11900
H360        H  0.97453253  0.26865009  0.08786124     0.13100
H361        H  0.03419081  0.29967560  0.08889710     0.12100
H362        H  0.03069548  0.30597610  0.92996424     0.09200
H363        H  0.08945740  0.33716155  0.93352084     0.12500
H364        H  0.08637397  0.33221257  0.05641100     0.14400
C365        C  0.78777855  0.20504344  0.64353564    -0.01200
C366        C  0.75864545  0.19537700  0.66332288    -0.09200
C367        C  0.75805225  0.19534896  0.70324945    -0.18000
C368        C  0.78698980  0.20581847  0.72487178     0.04400
C369        C  0.81674344  0.21656821  0.70460170     0.18600
C370        C  0.81675085  0.21530243  0.66427079    -0.19400
C371        C  0.84634771  0.22919254  0.72470371    -0.20700
C372        C  0.84708081  0.23153497  0.76451625    -0.19200
C373        C  0.81810035  0.22026971  0.78532294     0.20000
C374        C  0.78754390  0.20659991  0.76581321     0.02100
C375        C  0.75882047  0.19388652  0.78816358    -0.14000
C376        C  0.76043169  0.19511725  0.82809586    -0.11700
C377        C  0.79060389  0.20953311  0.84718456     0.01600
C378        C  0.81941474  0.22223994  0.82560250    -0.23900
H379        H  0.73609399  0.18782140  0.64771493     0.09600
H380        H  0.73471709  0.18788009  0.71627265     0.13200
H381        H  0.83950338  0.22362072  0.64895859     0.11900
H382        H  0.86916922  0.23776371  0.70949397     0.13100
H383        H  0.87045459  0.24182822  0.77917404     0.12100
H384        H  0.73466107  0.18224401  0.77570648     0.09200
H385        H  0.73785728  0.18509173  0.84416257     0.12500
H386        H  0.84285964  0.23304516  0.84022208     0.14400
C387        C  0.79002308  0.21561625  0.34808195    -0.01200
C388        C  0.81950266  0.22254145  0.33089139    -0.09200
C389        C  0.82184274  0.22141615  0.29106386    -0.18000
C390        C  0.79478231  0.21413892  0.26716248     0.04400
C391        C  0.76531075  0.20837941  0.28497581     0.18600
C392        C  0.76298189  0.20838215  0.32505586    -0.19400
C393        C  0.73842994  0.20303084  0.26271494    -0.20700
C394        C  0.74020965  0.20357076  0.22300080    -0.19200
C395        C  0.76853092  0.20838661  0.20458505     0.20000
C396        C  0.79599831  0.21295351  0.22629509     0.02100
C397        C  0.82325054  0.21580680  0.20607739    -0.14000
C398        C  0.82339542  0.21492276  0.16599753    -0.11700
C399        C  0.79679667  0.21187993  0.14496157     0.01600
C400        C  0.76945303  0.20855502  0.16444016    -0.23900
H401        H  0.84068970  0.22830632  0.34842183     0.09600
H402        H  0.84527741  0.22696513  0.27981890     0.13200
H403        H  0.74029907  0.20353631  0.33842902     0.11900
H404        H  0.71601558  0.19888041  0.27612304     0.13100
H405        H  0.71913500  0.19985568  0.20655032     0.12100
H406        H  0.84459954  0.21832482  0.22042632     0.09200
H407        H  0.84469295  0.21738139  0.15137455     0.12500
H408        H  0.74856158  0.20563125  0.14818881     0.14400
C409        C  0.48148321  0.67293944  0.49584977    -0.01200
C410        C  0.46799065  0.65780067  0.46059212    -0.09200
C411        C  0.43997190  0.62663869  0.45907190    -0.18000
C412        C  0.42399443  0.61000571  0.49302562     0.04400
C413        C  0.43773854  0.62579424  0.52864372     0.18600
C414        C  0.46652055  0.65650899  0.52971330    -0.19400
C415        C  0.42222007  0.61130636  0.56308007    -0.20700
C416        C  0.39279438  0.58180451  0.56300794    -0.19200
C417        C  0.37857148  0.56559153  0.52855617     0.20000
C418        C  0.39435605  0.57888349  0.49306585     0.02100
C419        C  0.37949348  0.56056376  0.45933055    -0.14000
C420        C  0.34949320  0.53115789  0.46076291    -0.11700
C421        C  0.33323181  0.51927700  0.49567002     0.01600
C422        C  0.34825273  0.53638386  0.52946944    -0.23900
H423        H  0.47921268  0.67011687  0.43404781     0.09600
H424        H  0.43088811  0.61660917  0.43095417     0.13200
H425        H  0.47659499  0.66831413  0.55708142     0.11900
H426        H  0.43252775  0.62327583  0.59028141     0.13100
H427        H  0.38099238  0.57164663  0.59014815     0.12100
H428        H  0.39036555  0.56842367  0.43144665     0.09200
H429        H  0.33839758  0.51830777  0.43423973     0.12500
H430        H  0.33604082  0.52712760  0.55666299     0.14400
C431        C  0.66001622  0.91554201  0.50297948    -0.01200
C432        C  0.69387685  0.93278927  0.50909655    -0.09200
C433        C  0.71160976  0.96708936  0.50680024    -0.18000
C434        C  0.69588754  0.98496108  0.49732303     0.04400
C435        C  0.66173264  0.96686624  0.48935422     0.18600
C436        C  0.64422551  0.93274325  0.49296404    -0.19400
C437        C  0.64508125  0.98284019  0.47781775    -0.20700
C438        C  0.66153439  0.01662414  0.47431922    -0.19200
C439        C  0.69484658  0.03534421  0.48331634     0.20000
C440        C  0.71257318  0.01997717  0.49532999     0.02100
C441        C  0.74589373  0.04043927  0.50560673    -0.14000
C442        C  0.76076451  0.07465417  0.50421106    -0.11700
C443        C  0.74313764  0.08950025  0.49186634     0.01600
C444        C  0.71027339  0.06951609  0.48108780    -0.23900
H445        H  0.70649861  0.91978354  0.51654547     0.09600
H446        H  0.73756228  0.97893380  0.51221687     0.13200
H447        H  0.61806776  0.91932532  0.48743332     0.11900
H448        H  0.61911925  0.96908044  0.47134046     0.13100
H449        H  0.64792806  0.02825483  0.46521483     0.12100
H450        H  0.76082787  0.03070876  0.51565959     0.09200
H451        H  0.78613829  0.08952883  0.51287504     0.12500
H452        H  0.69616228  0.08062758  0.47199977     0.14400
C453        C  0.33731545  0.51636589  0.99292268    -0.01200
C454        C  0.35022910  0.53455118  0.95939493    -0.09200
C455        C  0.38046849  0.56352482  0.95972483    -0.18000
C456        C  0.39869893  0.57577944  0.99404107     0.04400
C457        C  0.38566260  0.55711519  0.02797136     0.18600
C458        C  0.35560206  0.52739598  0.02695900    -0.19400
C459        C  0.40209474  0.56884419  0.06298126    -0.20700
C460        C  0.43056895  0.59929779  0.06532341    -0.19200
C461        C  0.44388053  0.61840376  0.03252483     0.20000
C462        C  0.42874254  0.60641054  0.99617887     0.02100
C463        C  0.44420704  0.62578603  0.96362956    -0.14000
C464        C  0.47273299  0.65622029  0.96722603    -0.11700
C465        C  0.48654566  0.66870040  0.00325430     0.01600
C466        C  0.47212551  0.64959019  0.03584296    -0.23900
H467        H  0.33657736  0.52660923  0.93273841     0.09600
H468        H  0.38830449  0.57632632  0.93289375     0.13200
H469        H  0.34561242  0.51374340  0.05317379     0.11900
H470        H  0.39235392  0.55477049  0.08896385     0.13100
H471        H  0.44219537  0.60803229  0.09304273     0.12100
H472        H  0.43498152  0.61807595  0.93494597     0.09200
H473        H  0.48357175  0.67054288  0.94165990     0.12500
H474        H  0.48303477  0.65894604  0.06376572     0.14400
C475        C  0.66532912  0.91439315  0.99986626    -0.01200
C476        C  0.69104690  0.93128783  0.02613654    -0.09200
C477        C  0.71001443  0.96563885  0.02567943    -0.18000
C478        C  0.70383903  0.98423007  0.99869016     0.04400
C479        C  0.67846489  0.96673471  0.97135132     0.18600
C480        C  0.65972829  0.93244715  0.97218845    -0.19400
C481        C  0.67134368  0.98349979  0.94359410    -0.20700
C482        C  0.68825984  0.01743116  0.94288730    -0.19200
C483        C  0.71273844  0.03552840  0.96994102     0.20000
C484        C  0.72131047  0.01939755  0.99802244     0.02100
C485        C  0.74646916  0.03929430  0.02441994    -0.14000
C486        C  0.76171360  0.07362303  0.02344882    -0.11700
C487        C  0.75240933  0.08921779  0.99624279     0.01600
C488        C  0.72820357  0.06980045  0.96930081    -0.23900
H489        H  0.69605106  0.91797993  0.04772625     0.09600
H490        H  0.72904008  0.97699789  0.04705671     0.13200
H491        H  0.64025109  0.91975868  0.95131357     0.11900
H492        H  0.65217924  0.97025677  0.92254402     0.13100
H493        H  0.68178466  0.02963395  0.92129792     0.12100
H494        H  0.75452648  0.02899612  0.04644380     0.09200
H495        H  0.78033178  0.08795003  0.04462466     0.12500
H496        H  0.72088374  0.08140549  0.94783306     0.14400
C497        C  0.58621978  0.78940106  0.85717480    -0.01200
C498        C  0.58243139  0.76199739  0.83704712    -0.09200
C499        C  0.58366347  0.76189234  0.79710597    -0.18000
C500        C  0.58883161  0.78942961  0.77569949     0.04400
C501        C  0.59319889  0.81740939  0.79623001     0.18600
C502        C  0.59187495  0.81716108  0.83649570    -0.19400
C503        C  0.59834734  0.84530068  0.77643489    -0.20700
C504        C  0.59818908  0.84565915  0.73658646    -0.19200
C505        C  0.59309331  0.81821236  0.71551083     0.20000
C506        C  0.58905260  0.78994588  0.73472826     0.02100
C507        C  0.58485800  0.76324007  0.71204906    -0.14000
C508        C  0.58324501  0.76400827  0.67217825    -0.11700
C509        C  0.58584899  0.79135075  0.65335463     0.01600
C510        C  0.59143589  0.81866229  0.67528033    -0.23900
H511        H  0.57799951  0.74020080  0.85221815     0.09600
H512        H  0.58004318  0.73967652  0.78390217     0.13200
H513        H  0.59506472  0.83861512  0.85173582     0.11900
H514        H  0.60195684  0.86681356  0.79188614     0.13100
H515        H  0.60164155  0.86742513  0.72214774     0.12100
H516        H  0.58242683  0.74122011  0.72418532     0.09200
H517        H  0.57943527  0.74273468  0.65605531     0.12500
H518        H  0.59400601  0.84018942  0.66109087     0.14400
C519        C  0.59450674  0.79469691  0.15376472    -0.01200
C520        C  0.62461758  0.80831153  0.17311969    -0.09200
C521        C  0.62600808  0.80985807  0.21328756    -0.18000
C522        C  0.59714490  0.79789277  0.23537214     0.04400
C523        C  0.56679076  0.78402182  0.21536950     0.18600
C524        C  0.56578857  0.78251033  0.17531222    -0.19400
C525        C  0.53736645  0.77171841  0.23533067    -0.20700
C526        C  0.53725719  0.77275729  0.27496913    -0.19200
C527        C  0.56656949  0.78612527  0.29565906     0.20000
C528        C  0.59703642  0.79902431  0.27641260     0.02100
C529        C  0.62578589  0.81232917  0.29922073    -0.14000
C530        C  0.62411898  0.81230025  0.33936948    -0.11700
C531        C  0.59385393  0.79913797  0.35798409     0.01600
C532        C  0.56531279  0.78637609  0.33569351    -0.23900
H533        H  0.64720550  0.81782297  0.15719748     0.09600
H534        H  0.64995402  0.82058097  0.22623343     0.13200
H535        H  0.54229166  0.77193916  0.16084680     0.11900
H536        H  0.51419699  0.76116105  0.22015374     0.13100
H537        H  0.51399959  0.76293600  0.28957591     0.12100
H538        H  0.64983671  0.82277743  0.28686349     0.09200
H539        H  0.64659457  0.82246249  0.35585453     0.12500
H540        H  0.54169141  0.77619420  0.34954466     0.14400
C541        C  0.81844783  0.48667102  0.51222198    -0.01200
C542        C  0.80775936  0.46702011  0.54497791    -0.09200
C543        C  0.80820021  0.43783848  0.54665127    -0.18000
C544        C  0.81906171  0.42698787  0.51519519     0.04400
C545        C  0.83172828  0.44790530  0.48287850     0.18600
C546        C  0.83145582  0.47750570  0.48172988    -0.19400
C547        C  0.84360906  0.43864491  0.45142542    -0.20700
C548        C  0.84219930  0.40854144  0.45082081    -0.19200
C549        C  0.82850695  0.38678886  0.48144647     0.20000
C550        C  0.81698849  0.39580827  0.51424674     0.02100
C551        C  0.80277609  0.37272383  0.54406310    -0.14000
C552        C  0.79934849  0.34177405  0.54095746    -0.11700
C553        C  0.81019498  0.33272694  0.50832653     0.01600
C554        C  0.82536875  0.35564514  0.47897022    -0.23900
H555        H  0.79823727  0.47383810  0.56931118     0.09600
H556        H  0.79933456  0.42412831  0.57277457     0.13200
H557        H  0.84007394  0.49267870  0.45637258     0.11900
H558        H  0.85356764  0.45456465  0.42682870     0.13100
H559        H  0.85115525  0.40189498  0.42579256     0.12100
H560        H  0.79330656  0.37743705  0.56982434     0.09200
H561        H  0.78770087  0.32466665  0.56420064     0.12500
H562        H  0.83379955  0.34890055  0.45354294     0.14400
C563        C  0.74702530  0.65929062  0.50213758    -0.01200
C564        C  0.76468717  0.69339908  0.50673723    -0.09200
C565        C  0.74845430  0.71137641  0.50842379    -0.18000
C566        C  0.71383970  0.69555252  0.50637258     0.04400
C567        C  0.69618394  0.66080939  0.50333995     0.18600
C568        C  0.71277635  0.64328986  0.50062862    -0.19400
C569        C  0.66195833  0.64355602  0.50313648    -0.20700
C570        C  0.64468476  0.66003135  0.50564410    -0.19200
C571        C  0.66117151  0.69424236  0.50739656     0.20000
C572        C  0.69597240  0.71266545  0.50735684     0.02100
C573        C  0.71111507  0.74727510  0.50750529    -0.14000
C574        C  0.69239962  0.76275279  0.50754073    -0.11700
C575        C  0.65813406  0.74431220  0.50834901     0.01600
C576        C  0.64283296  0.71006595  0.50858409    -0.23900
H577        H  0.79115339  0.70626580  0.50844125     0.09600
H578        H  0.76354862  0.73754445  0.51175288     0.13200
H579        H  0.69881409  0.61681577  0.49800907     0.11900
H580        H  0.64840724  0.61705476  0.50118234     0.13100
H581        H  0.61817028  0.64589297  0.50557296     0.12100
H582        H  0.73733430  0.76296429  0.50686832     0.09200
H583        H  0.70478742  0.78924894  0.50734198     0.12500
H584        H  0.61632002  0.69552549  0.50868464     0.14400
C585        C  0.82127100  0.48527202  0.99254614    -0.01200
C586        C  0.83399174  0.47771296  0.02467440    -0.09200
C587        C  0.83618881  0.44933600  0.02549450    -0.18000
C588        C  0.82582560  0.42748637  0.99390310     0.04400
C589        C  0.81480985  0.43625999  0.96050696     0.18600
C590        C  0.81230921  0.46467409  0.96026055    -0.19400
C591        C  0.80585878  0.41634909  0.92774625    -0.20700
C592        C  0.80713350  0.38758771  0.92758523    -0.19200
C593        C  0.81646450  0.37749626  0.96053839     0.20000
C594        C  0.82563267  0.39712915  0.99435189     0.02100
C595        C  0.83289765  0.38485054  0.02755652    -0.14000
C596        C  0.83050917  0.35417511  0.02731437    -0.11700
C597        C  0.82191086  0.33522251  0.99383511     0.01600
C598        C  0.81552792  0.34726646  0.96031410    -0.23900
H599        H  0.84146844  0.49334220  0.04985091     0.09600
H600        H  0.84607552  0.44516873  0.05129613     0.13200
H601        H  0.80297494  0.47054247  0.93495525     0.11900
H602        H  0.79770294  0.42301622  0.90206845     0.13100
H603        H  0.79994108  0.37269056  0.90178478     0.12100
H604        H  0.83928185  0.39778611  0.05454920     0.09200
H605        H  0.83513196  0.34502943  0.05360221     0.12500
H606        H  0.80806621  0.33224045  0.93458302     0.14400
C607        C  0.75373958  0.66249320  0.00781624    -0.01200
C608        C  0.76711983  0.69225848  0.98806433    -0.09200
C609        C  0.75151506  0.71085866  0.98835544    -0.18000
C610        C  0.72169209  0.69999110  0.00819305     0.04400
C611        C  0.70850303  0.66991250  0.02832010     0.18600
C612        C  0.72467143  0.65194444  0.02836280    -0.19400
C613        C  0.67872027  0.65731670  0.04765056    -0.20700
C614        C  0.66103671  0.67339709  0.04649687    -0.19200
C615        C  0.67305687  0.70289295  0.02675951     0.18800
C616        C  0.70395906  0.71722596  0.00814714     0.02100
C617        C  0.71541035  0.74795304  0.99022839    -0.14000
C618        C  0.69646428  0.76316192  0.98998731    -0.11700
C619        C  0.66549047  0.74792400  0.00689480     0.01600
C620        C  0.65405853  0.71797276  0.02534304    -0.23900
H621        H  0.78948492  0.70101161  0.97187833     0.09600
H622        H  0.76292759  0.73322658  0.97210498     0.13200
H623        H  0.71389097  0.62900059  0.04381584     0.11900
H624        H  0.66863520  0.63442400  0.06310346     0.13100
H625        H  0.63769345  0.66260269  0.06107645     0.12100
H626        H  0.73886273  0.76076645  0.97627708     0.09200
H627        H  0.70563534  0.78644646  0.97568033     0.12500
H628        H  0.63016541  0.70638898  0.03878143     0.14400
C629        C  0.80870620  0.59597395  0.85296066    -0.01200
C630        C  0.82021748  0.62602967  0.83433760    -0.09200
C631        C  0.82163075  0.62778510  0.79421188    -0.18000
C632        C  0.81146530  0.59933592  0.77147867     0.04400
C633        C  0.80064503  0.56918787  0.79079742     0.18600
C634        C  0.79953181  0.56786268  0.83081698    -0.19400
C635        C  0.79031422  0.54018424  0.77017731    -0.20700
C636        C  0.78955933  0.54015296  0.73053033    -0.19200
C637        C  0.79929870  0.56916033  0.71052699     0.20000
C638        C  0.81093647  0.59934771  0.73044378     0.02100
C639        C  0.82097580  0.62789146  0.70829706    -0.14000
C640        C  0.81861415  0.62619928  0.66819113    -0.11700
C641        C  0.80612665  0.59609919  0.64901740     0.01600
C642        C  0.79698571  0.56785178  0.67054155    -0.23900
H643        H  0.82765184  0.64818318  0.85077283     0.09600
H644        H  0.83031746  0.65159237  0.78180755     0.13200
H645        H  0.79096309  0.54448967  0.84477037     0.11900
H646        H  0.78223141  0.51720414  0.78484728     0.13100
H647        H  0.78091994  0.51715197  0.71539514     0.12100
H648        H  0.83051598  0.65177292  0.72115801     0.09200
H649        H  0.82617706  0.64846163  0.65220928     0.12500
H650        H  0.78777961  0.54444698  0.65612371     0.14400
C651        C  0.79380332  0.57448542  0.14903833    -0.01200
C652        C  0.81891289  0.57329687  0.16900931    -0.09200
C653        C  0.81949494  0.57320642  0.20899301    -0.18000
C654        C  0.79482721  0.57436567  0.23059409     0.04400
C655        C  0.76943167  0.57564725  0.21023934     0.18600
C656        C  0.76909051  0.57560016  0.16996585    -0.19400
C657        C  0.74456851  0.57712965  0.23017722    -0.20700
C658        C  0.74441098  0.57752818  0.27000219    -0.19200
C659        C  0.76901559  0.57627839  0.29092658     0.20000
C660        C  0.79451018  0.57449685  0.27156856     0.02100
C661        C  0.81854459  0.57294114  0.29411905    -0.14000
C662        C  0.81746177  0.57347302  0.33404784    -0.11700
C663        C  0.79246842  0.57553287  0.35305510     0.01600
C664        C  0.76824540  0.57682370  0.33118705    -0.23900
H665        H  0.83838160  0.57249258  0.15367672     0.09600
H666        H  0.83970599  0.57238231  0.22205755     0.13200
H667        H  0.74955225  0.57661344  0.15491354     0.11900
H668        H  0.72514488  0.57812543  0.21484671     0.13100
H669        H  0.72487284  0.57882488  0.28455141     0.12100
H670        H  0.83851416  0.57124857  0.28185609     0.09200
H671        H  0.83643227  0.57225142  0.35010192     0.12500
H672        H  0.74869435  0.57828819  0.34548672     0.14400
C673        C  0.34214998  0.82977552  0.50675233    -0.01200
C674        C  0.35723610  0.83257652  0.47136992    -0.09200
C675        C  0.38741321  0.83398028  0.46929541    -0.18000
C676        C  0.40372416  0.83298359  0.50283260     0.04400
C677        C  0.38992732  0.83355399  0.53878372     0.18600
C678        C  0.35911551  0.83131976  0.54045145    -0.19400
C679        C  0.40648854  0.83526420  0.57279592    -0.20700
C680        C  0.43568287  0.83480204  0.57193714    -0.19200
C681        C  0.44840761  0.83138081  0.53714500     0.20000
C682        C  0.43264923  0.83051040  0.50203927     0.02100
C683        C  0.44543849  0.82530123  0.46785968    -0.14000
C684        C  0.47205976  0.82018937  0.46865797    -0.11700
C685        C  0.48744555  0.82087602  0.50328932     0.01600
C686        C  0.47597737  0.82738083  0.53737158    -0.23900
H687        H  0.34487127  0.83200653  0.44496573     0.09600
H688        H  0.39718441  0.83545743  0.44102657     0.13200
H689        H  0.34796417  0.83001725  0.56799835     0.11900
H690        H  0.39652214  0.83643753  0.60030235     0.13100
H691        H  0.44763645  0.83570639  0.59881484     0.12100
H692        H  0.43457997  0.82370094  0.44017683     0.09200
H693        H  0.48050296  0.81539732  0.44190582     0.12500
H694        H  0.48753047  0.82773726  0.56437684     0.14400
C695        C  0.19949765  0.67780936  0.51261076    -0.01200
C696        C  0.21556890  0.67064502  0.54145400    -0.09200
C697        C  0.21352993  0.64020201  0.54300828    -0.18000
C698        C  0.19532780  0.61557793  0.51544604     0.04400
C699        C  0.17857683  0.62262167  0.48653961     0.18600
C700        C  0.18062092  0.65339803  0.48549797    -0.19400
C701        C  0.16043780  0.59913413  0.45839008    -0.20700
C702        C  0.15931090  0.56913034  0.45766500    -0.19200
C703        C  0.17609332  0.56169924  0.48523575     0.20000
C704        C  0.19382423  0.58458465  0.51497728     0.02100
C705        C  0.20978534  0.57567004  0.54256326    -0.14000
C706        C  0.20944779  0.54609605  0.53972583    -0.11700
C707        C  0.19314656  0.52411062  0.50948933     0.01600
C708        C  0.17586545  0.53180958  0.48276258    -0.23900
H709        H  0.23025561  0.68885768  0.56288371     0.09600
H710        H  0.22697925  0.63699945  0.56584995     0.13200
H711        H  0.16804727  0.65855036  0.46300202     0.11900
H712        H  0.14746788  0.60422255  0.43634787     0.13100
H713        H  0.14553037  0.55176448  0.43506287     0.12100
H714        H  0.22313945  0.59114441  0.56650128     0.09200
H715        H  0.22271681  0.54079178  0.56113173     0.12500
H716        H  0.16295814  0.51497041  0.45938283     0.14400
C717        C  0.91849877  0.66561069  0.49212537    -0.01200
C718        C  0.93556312  0.66034702  0.46281641    -0.09200
C719        C  0.96961694  0.67762303  0.46174357    -0.18000
C720        C  0.98820572  0.70082154  0.49045885     0.04400
C721        C  0.97101066  0.70749197  0.51916805     0.18600
C722        C  0.93640182  0.68997915  0.51972268    -0.19400
C723        C  0.98854145  0.73103905  0.54754603    -0.20700
C724        C  0.02269690  0.74765812  0.54838278    -0.19200
C725        C  0.04028426  0.74084841  0.52121209     0.20000
C726        C  0.02318632  0.71723665  0.49190472     0.02100
C727        C  0.04178452  0.71036778  0.46583818    -0.14000
C728        C  0.07573485  0.72605309  0.46878940    -0.11700
C729        C  0.09276148  0.74940618  0.49752735     0.01600
C730        C  0.07481792  0.75697348  0.52352426    -0.23900
H731        H  0.92246110  0.64220221  0.44067504     0.09600
H732        H  0.98055340  0.67190942  0.43816144     0.13200
H733        H  0.92350520  0.69440993  0.54245837     0.11900
H734        H  0.97573835  0.73647622  0.56944642     0.13100
H735        H  0.03543067  0.76557551  0.57086168     0.12100
H736        H  0.03089722  0.69252174  0.44315861     0.09200
H737        H  0.08874839  0.71962314  0.44825708     0.12500
H738        H  0.08760613  0.77475496  0.54612561     0.14400
C739        C  0.33457741  0.80830972  0.00353990    -0.01200
C740        C  0.35071332  0.81045430  0.96919060    -0.09200
C741        C  0.38104701  0.81222665  0.96926560    -0.18000
C742        C  0.39600237  0.81115799  0.00393737     0.04400
C743        C  0.37897620  0.80782069  0.03869904     0.18600
C744        C  0.34893714  0.80722892  0.03828515    -0.19400
C745        C  0.39168913  0.80434496  0.07349381    -0.20700
C746        C  0.42067758  0.80349327  0.07441008    -0.19200
C747        C  0.43828928  0.80728394  0.04073868     0.20000
C748        C  0.42672857  0.81225664  0.00520908     0.02100
C749        C  0.44647439  0.81817606  0.97247912    -0.14000
C750        C  0.47554359  0.81742663  0.97454463    -0.11700
C751        C  0.48582370  0.81042754  0.00906395     0.01600
C752        C  0.46728317  0.80585399  0.04224916    -0.23900
H753        H  0.33982993  0.81087777  0.94200778     0.09600
H754        H  0.39171119  0.81347272  0.94162733     0.13200
H755        H  0.33612575  0.80471469  0.06492445     0.11900
H756        H  0.37875823  0.80155189  0.10008670     0.13100
H757        H  0.42946499  0.79999932  0.10167916     0.12100
H758        H  0.44022404  0.82364487  0.94486453     0.09200
H759        H  0.48953996  0.82135737  0.94858371     0.12500
H760        H  0.47535149  0.80102014  0.06927769     0.14400
C761        C  0.19298300  0.51855424  0.99064085    -0.01200
C762        C  0.17468324  0.52318746  0.01896479    -0.09200
C763        C  0.17285323  0.55186438  0.02021044    -0.18000
C764        C  0.18945752  0.57709720  0.99305041     0.04400
C765        C  0.20727816  0.57186571  0.96383390     0.18600
C766        C  0.20876443  0.54292864  0.96283521    -0.19400
C767        C  0.22410756  0.59581314  0.93607303    -0.20700
C768        C  0.22414198  0.62519251  0.93697752    -0.19200
C769        C  0.20736945  0.63144580  0.96568560     0.20000
C770        C  0.18955087  0.60749081  0.99403569     0.02100
C771        C  0.17317740  0.61536740  0.02236923    -0.14000
C772        C  0.17514442  0.64597180  0.02298142    -0.11700
C773        C  0.19326335  0.66970252  0.99533602     0.01600
C774        C  0.20889931  0.66189773  0.96647665    -0.23900
H775        H  0.16219734  0.50483849  0.04080261     0.09600
H776        H  0.15860005  0.55374874  0.04306660     0.13200
H777        H  0.22293067  0.53974593  0.94061816     0.11900
H778        H  0.23766684  0.59194108  0.91367941     0.13100
H779        H  0.23772360  0.64333745  0.91525465     0.12100
H780        H  0.15903081  0.59856326  0.04476431     0.09200
H781        H  0.16280543  0.65122597  0.04561452     0.12500
H782        H  0.22305958  0.67991311  0.94485296     0.14400
C783        C  0.09388288  0.75079324  0.01590458    -0.01200
C784        C  0.07670631  0.72780122  0.04454849    -0.09200
C785        C  0.04282972  0.71265779  0.04720111    -0.18000
C786        C  0.02455053  0.71967367  0.02078621     0.04400
C787        C  0.04198055  0.74382752  0.99246534     0.18600
C788        C  0.07642376  0.75942456  0.99052170    -0.19400
C789        C  0.02479654  0.75138768  0.96554322    -0.20700
C790        C  0.99066526  0.73451866  0.96514899    -0.19200
C791        C  0.97281096  0.70980615  0.99184454     0.20000
C792        C  0.98958606  0.70266224  0.02065593     0.02100
C793        C  0.97063050  0.67802045  0.04744959    -0.14000
C794        C  0.93672074  0.65984365  0.04428906    -0.11700
C795        C  0.92019345  0.66562245  0.01474950     0.01600
C796        C  0.93832903  0.69142943  0.98925913    -0.23900
H797        H  0.08951205  0.72098280  0.06493129     0.09600
H798        H  0.03176472  0.69498545  0.06976414     0.13200
H799        H  0.08944973  0.77723015  0.96827773     0.11900
H800        H  0.03783057  0.76990979  0.94401344     0.13100
H801        H  0.97814796  0.74039707  0.94331391     0.12100
H802        H  0.98115528  0.67164126  0.07086336     0.09200
H803        H  0.92335811  0.64059879  0.06493785     0.12500
H804        H  0.92578994  0.69629766  0.96645896     0.14400
C805        C  0.21464760  0.80161342  0.65309523    -0.01200
C806        C  0.23555545  0.79392614  0.67310430    -0.09200
C807        C  0.23611345  0.79375567  0.71283071    -0.18000
C808        C  0.21559496  0.80129883  0.73452220     0.04400
C809        C  0.19405253  0.80883641  0.71446495     0.18600
C810        C  0.19392962  0.80921924  0.67399336    -0.19400
C811        C  0.17265308  0.81556439  0.73501896    -0.20700
C812        C  0.17206139  0.81468738  0.77501606    -0.19200
C813        C  0.19315813  0.80748401  0.79552189     0.20000
C814        C  0.21549566  0.80111795  0.77539073     0.02100
C815        C  0.23692786  0.79480580  0.79700483    -0.14000
C816        C  0.23554214  0.79365635  0.83666886    -0.11700
C817        C  0.21303904  0.79899164  0.85672884     0.01600
C818        C  0.19210415  0.80641734  0.83599287    -0.23900
H819        H  0.25182501  0.78790447  0.65797499     0.09600
H820        H  0.25273583  0.78716283  0.72548060     0.13200
H821        H  0.17743556  0.81496271  0.65885153     0.11900
H822        H  0.15605270  0.82125544  0.72005699     0.13100
H823        H  0.15500017  0.81969220  0.79000302     0.12100
H824        H  0.25528961  0.79072174  0.78433666     0.09200
H825        H  0.25253060  0.78858646  0.85174666     0.12500
H826        H  0.17477418  0.81089628  0.85121270     0.14400
C827        C  0.21960642  0.79428542  0.35611105    -0.01200
C828        C  0.24474527  0.82089510  0.33653372    -0.09200
C829        C  0.24509525  0.82201813  0.29659998    -0.18000
C830        C  0.22013408  0.79637066  0.27462661     0.04400
C831        C  0.19475247  0.76932528  0.29455475     0.18600
C832        C  0.19465861  0.76856194  0.33482171    -0.19400
C833        C  0.16967837  0.74307941  0.27418640    -0.20700
C834        C  0.16945140  0.74285910  0.23435755    -0.19200
C835        C  0.19414934  0.76900219  0.21387779     0.20000
C836        C  0.21963796  0.79636505  0.23367005     0.02100
C837        C  0.24356941  0.82241614  0.21155054    -0.14000
C838        C  0.24275775  0.82086344  0.17160613    -0.11700
C839        C  0.21813995  0.79342796  0.15220850     0.01600
C840        C  0.19364582  0.76775990  0.17363050    -0.23900
H841        H  0.26442061  0.84110262  0.35214005     0.09600
H842        H  0.26539337  0.84322824  0.28387006     0.13200
H843        H  0.17508523  0.74780781  0.34957826     0.11900
H844        H  0.15023029  0.72241101  0.28917414     0.13100
H845        H  0.14986006  0.72200058  0.21945476     0.12100
H846        H  0.26333672  0.84432244  0.22417232     0.09200
H847        H  0.26182715  0.84122663  0.15586539     0.12500
H848        H  0.17426174  0.74652578  0.15900028     0.14400
C849        C  0.51896105  0.33682646  0.50882840    -0.01200
C850        C  0.53841874  0.34590575  0.54198596    -0.09200
C851        C  0.56781417  0.37565704  0.54415096    -0.18000
C852        C  0.57916830  0.39741511  0.51277767     0.04400
C853        C  0.55885284  0.38869107  0.47963314     0.18600
C854        C  0.52893176  0.35880797  0.47809804    -0.19400
C855        C  0.56900911  0.40938285  0.44777728    -0.20700
C856        C  0.59929297  0.43816190  0.44770263    -0.19200
C857        C  0.62021381  0.44708083  0.47952315     0.20000
C858        C  0.61026849  0.42703109  0.51272471     0.02100
C859        C  0.63224447  0.43712972  0.54409691    -0.14000
C860        C  0.66303893  0.46528382  0.54216606    -0.11700
C861        C  0.67315855  0.48468330  0.50915718     0.01600
C862        C  0.65131505  0.47563268  0.47807831    -0.23900
H863        H  0.53118313  0.32959853  0.56633052     0.09600
H864        H  0.58136096  0.38049868  0.57054000     0.13200
H865        H  0.51411741  0.35204924  0.45226338     0.11900
H866        H  0.55364986  0.40298640  0.42244713     0.13100
H867        H  0.60659275  0.45334203  0.42233489     0.12100
H868        H  0.62662397  0.42362910  0.57046201     0.09200
H869        H  0.67917973  0.47169196  0.56675464     0.12500
H870        H  0.65878415  0.49037273  0.45234004     0.14400
C871        C  0.51390180  0.18786918  0.50092373    -0.01200
C872        C  0.52067877  0.17422090  0.46895356    -0.09200
C873        C  0.54868722  0.17127693  0.46797104    -0.18000
C874        C  0.57100482  0.18204599  0.49910821     0.04400
C875        C  0.56317179  0.19451783  0.53206841     0.18600
C876        C  0.53494065  0.19718030  0.53270618    -0.19400
C877        C  0.58405032  0.20524080  0.56392472    -0.20700
C878        C  0.61328340  0.20508194  0.56332131    -0.19200
C879        C  0.62238826  0.19418021  0.53085512     0.20000
C880        C  0.60121175  0.18187016  0.49848369     0.02100
C881        C  0.61175965  0.17088401  0.46669281    -0.14000
C882        C  0.64259170  0.17340144  0.46656980    -0.11700
C883        C  0.66382956  0.18683180  0.49804723     0.01600
C884        C  0.65308725  0.19642429  0.53036707    -0.23900
H885        H  0.50476930  0.16662549  0.44405336     0.09600
H886        H  0.55255441  0.16111974  0.44216044     0.13200
H887        H  0.52984373  0.20743199  0.55781204     0.11900
H888        H  0.57806663  0.21450194  0.58923609     0.13100
H889        H  0.62923229  0.21421751  0.58819155     0.12100
H890        H  0.59700779  0.16081727  0.44125055     0.09200
H891        H  0.65013719  0.16557264  0.44131625     0.12500
H892        H  0.66903586  0.20645963  0.55515601     0.14400
C893        C  0.25243782  0.91860677  0.49671710    -0.01200
C894        C  0.24383900  0.93509198  0.52354278    -0.09200
C895        C  0.25817419  0.96929302  0.52232793    -0.18000
C896        C  0.28166640  0.98804730  0.49408241     0.04400
C897        C  0.28906423  0.97084973  0.46607751     0.18600
C898        C  0.27444927  0.93673715  0.46756322    -0.19400
C899        C  0.31174591  0.98776484  0.43716617    -0.20700
C900        C  0.32820858  0.02165849  0.43604564    -0.19200
C901        C  0.32241234  0.03949498  0.46381225     0.20000
C902        C  0.29873324  0.02312802  0.49294488     0.02100
C903        C  0.29395826  0.04271703  0.52002420    -0.14000
C904        C  0.31277760  0.07699940  0.51890520    -0.11700
C905        C  0.33686947  0.09279182  0.49086129     0.01600
C906        C  0.34094531  0.07374930  0.46300525    -0.23900
H907        H  0.22675601  0.92165921  0.54623633     0.09600
H908        H  0.25088539  0.98041830  0.54425039     0.13200
H909        H  0.28095507  0.92428986  0.44620876     0.11900
H910        H  0.31726979  0.97469313  0.41562729     0.13100
H911        H  0.34608416  0.03404248  0.41366374     0.12100
H912        H  0.27632248  0.03224334  0.54278624     0.09200
H913        H  0.30909533  0.09113841  0.54076317     0.12500
H914        H  0.35924087  0.08563594  0.44088901     0.14400
C915        C  0.33665750  0.25502351  0.48243063    -0.01200
C916        C  0.34174721  0.27702086  0.45284273    -0.09200
C917        C  0.32215467  0.29106575  0.44910944    -0.18000
C918        C  0.29676562  0.28399863  0.47537830     0.04400
C919        C  0.29067862  0.26069484  0.50453299     0.18600
C920        C  0.31030420  0.24611029  0.50750516    -0.19400
C921        C  0.26593038  0.25316473  0.53141557    -0.20700
C922        C  0.24840906  0.26964962  0.53130378    -0.19200
C923        C  0.25490937  0.29383142  0.50402878     0.20000
C924        C  0.27836932  0.30044128  0.47483873     0.02100
C925        C  0.28335950  0.32422072  0.44718628    -0.14000
C926        C  0.26795823  0.34259056  0.45025598    -0.11700
C927        C  0.24661712  0.33780699  0.48055441     0.01600
C928        C  0.23911255  0.31238762  0.50655162    -0.23900
H929        H  0.36148598  0.28396279  0.43261198     0.09600
H930        H  0.32830157  0.30815631  0.42597185     0.13200
H931        H  0.30598613  0.22898846  0.53041078     0.11900
H932        H  0.26083809  0.23518511  0.55350331     0.13100
H933        H  0.23023689  0.26403625  0.55332460     0.12100
H934        H  0.29958971  0.32983739  0.42321005     0.09200
H935        H  0.27349250  0.36132919  0.42903837     0.12500
H936        H  0.22227936  0.30811610  0.52980315     0.14400
C937        C  0.42191367  0.21159278  0.84699537    -0.01200
C938        C  0.40477391  0.18148074  0.82781935    -0.09200
C939        C  0.40027796  0.18023443  0.78806326    -0.18000
C940        C  0.41355564  0.20928144  0.76615524     0.04400
C941        C  0.43169977  0.23969599  0.78586945     0.18600
C942        C  0.43513139  0.24056339  0.82584114    -0.19400
C943        C  0.44676030  0.26913328  0.76558428    -0.20700
C944        C  0.44492813  0.26907307  0.72588499    -0.19200
C945        C  0.42718720  0.23963965  0.70558341     0.20000
C946        C  0.41032696  0.20934150  0.72539045     0.02100
C947        C  0.39120915  0.18055637  0.70340301    -0.14000
C948        C  0.39023753  0.18176945  0.66337063    -0.11700
C949        C  0.40863303  0.21147516  0.64421378     0.01600
C950        C  0.42666963  0.24032778  0.66542444    -0.23900
H951        H  0.39431876  0.15880432  0.84372530     0.09600
H952        H  0.38684656  0.15622174  0.77521385     0.13200
H953        H  0.44878421  0.26394742  0.84053686     0.11900
H954        H  0.46065442  0.29236077  0.78048450     0.13100
H955        H  0.45751806  0.29223984  0.71093485     0.12100
H956        H  0.37682866  0.15681114  0.71631339     0.09200
H957        H  0.37607725  0.15925152  0.64724523     0.12500
H958        H  0.44059296  0.26339644  0.65047947     0.14400
C959        C  0.42723880  0.21910028  0.14385562    -0.01200
C960        C  0.44837543  0.24845456  0.16295358    -0.09200
C961        C  0.44898926  0.25026516  0.20292120    -0.18000
C962        C  0.42887263  0.22234306  0.22523768     0.04400
C963        C  0.40825518  0.19234001  0.20563847     0.18600
C964        C  0.40705244  0.19116832  0.16535358    -0.19400
C965        C  0.38934240  0.16356612  0.22635037    -0.20700
C966        C  0.39059316  0.16383380  0.26616014    -0.19200
C967        C  0.40996133  0.19307608  0.28631935     0.20000
C968        C  0.42885421  0.22292857  0.26622216     0.02100
C969        C  0.44650053  0.25204643  0.28807782    -0.14000
C970        C  0.44572371  0.25137338  0.32812512    -0.11700
C971        C  0.42797353  0.22171957  0.34769613     0.01600
C972        C  0.41024054  0.19265483  0.32656921    -0.23900
H973        H  0.46437508  0.27028290  0.14681640     0.09600
H974        H  0.46598268  0.27366497  0.21549629     0.13200
H975        H  0.39113864  0.16823534  0.15066972     0.11900
H976        H  0.37379482  0.14057336  0.21163251     0.13100
H977        H  0.37596645  0.14103669  0.28132084     0.12100
H978        H  0.46062626  0.27578152  0.27507692     0.09200
H979        H  0.45943516  0.27416222  0.34388873     0.12500
H980        H  0.39595024  0.16967627  0.34155115     0.14400
C981        C  0.52102082  0.33988599  0.99141654    -0.01200
C982        C  0.53321581  0.35729112  0.02573840    -0.09200
C983        C  0.56190269  0.38775110  0.02634736    -0.18000
C984        C  0.58007359  0.40143492  0.99251279     0.04400
C985        C  0.56728955  0.38388602  0.95754984     0.18600
C986        C  0.53757098  0.35375565  0.95716798    -0.19400
C987        C  0.58502109  0.39575571  0.92354665    -0.20700
C988        C  0.61579856  0.42393439  0.92376058    -0.19200
C989        C  0.62931471  0.44142381  0.95781922     0.20000
C990        C  0.61115246  0.43104366  0.99243912     0.02100
C991        C  0.62523996  0.45039215  0.02566442    -0.14000
C992        C  0.65660906  0.47783832  0.02497545    -0.11700
C993        C  0.67520818  0.48698607  0.99135399     0.01600
C994        C  0.66115432  0.46892149  0.95765220    -0.23900
H995        H  0.52079313  0.34687234  0.05250226     0.09600
H996        H  0.56989363  0.39923694  0.05404802     0.13200
H997        H  0.52847244  0.34005381  0.93061470     0.11900
H998        H  0.57547487  0.38257882  0.89678157     0.13100
H999        H  0.62928909  0.43190057  0.89714682     0.12100
H1000       H  0.61272981  0.44493511  0.05274167     0.09200
H1001       H  0.66668843  0.49147770  0.05134332     0.12500
H1002       H  0.67510990  0.47609322  0.93130232     0.14400
C1003       C  0.67597327  0.19260340  0.00208677    -0.01200
C1004       C  0.66767432  0.20466603  0.03423140    -0.09200
C1005       C  0.63823945  0.20446845  0.03574742    -0.18000
C1006       C  0.61592302  0.19241300  0.00475500     0.04400
C1007       C  0.62352407  0.17860233  0.97291277     0.18600
C1008       C  0.65336970  0.17874145  0.97185256    -0.19400
C1009       C  0.60159819  0.16543468  0.94206520    -0.20700
C1010       C  0.57260542  0.16632279  0.94182404    -0.19200
C1011       C  0.56505746  0.18086287  0.97214190     0.20000
C1012       C  0.58664167  0.19407490  0.00406721     0.02100
C1013       C  0.57847896  0.20927092  0.03349496    -0.14000
C1014       C  0.55036699  0.21156288  0.03118911    -0.11700
C1015       C  0.52912996  0.19870872  0.99969979     0.01600
C1016       C  0.53641955  0.18296116  0.97041032    -0.23900
H1017       H  0.68432617  0.21488091  0.05836800     0.09600
H1018       H  0.63393830  0.21423778  0.06156377     0.13200
H1019       H  0.65945454  0.16911336  0.94694728     0.11900
H1020       H  0.60704441  0.15463793  0.91779274     0.13100
H1021       H  0.55627902  0.15613615  0.91739390     0.12100
H1022       H  0.59357571  0.22029082  0.05844555     0.09200
H1023       H  0.54542987  0.22380437  0.05430232     0.12500
H1024       H  0.52024848  0.17303098  0.94580224     0.14400
C1025       C  0.26584215  0.91544051  0.00140284    -0.01200
C1026       C  0.24822460  0.93186047  0.00443482    -0.09200
C1027       C  0.26439941  0.96619574  0.00380990    -0.18000
C1028       C  0.29880380  0.98516614  0.99925793     0.04400
C1029       C  0.31620378  0.96812431  0.99442279     0.18600
C1030       C  0.29979580  0.93380080  0.99620412    -0.19400
C1031       C  0.34994567  0.98538317  0.98782747    -0.20700
C1032       C  0.36696593  0.01934009  0.98605440    -0.19200
C1033       C  0.35084837  0.03698129  0.99181810     0.20000
C1034       C  0.31662944  0.02029735  0.99905233     0.02100
C1035       C  0.30204181  0.03960130  0.00636171    -0.14000
C1036       C  0.32064245  0.07393249  0.00609752    -0.11700
C1037       C  0.35416358  0.09012964  0.99785461     0.01600
C1038       C  0.36898008  0.07133997  0.99071408    -0.23900
H1039       H  0.22193413  0.91812414  0.00820391     0.09600
H1040       H  0.24934757  0.97721257  0.00661157     0.13200
H1041       H  0.31351989  0.92121375  0.99307710     0.11900
H1042       H  0.36327265  0.97250177  0.98380012     0.13100
H1043       H  0.39305974  0.03193219  0.98064573     0.12100
H1044       H  0.27641100  0.02884682  0.01291727     0.09200
H1045       H  0.30863787  0.08785605  0.01187505     0.12500
H1046       H  0.39501431  0.08355862  0.98491016     0.14400
C1047       C  0.34043770  0.24878992  0.99674492    -0.01200
C1048       C  0.32728945  0.25128714  0.03164335    -0.09200
C1049       C  0.30835658  0.26641106  0.03356414    -0.18000
C1050       C  0.30156345  0.27905067  0.00028311     0.04400
C1051       C  0.31268670  0.27385664  0.96456414     0.18600
C1052       C  0.33243224  0.25948310  0.96321964    -0.19400
C1053       C  0.30468725  0.28373095  0.93045451    -0.20700
C1054       C  0.28653854  0.29945841  0.93105474    -0.19200
C1055       C  0.27703701  0.30688904  0.96586505     0.20000
C1056       C  0.28468046  0.29709574  0.00107703     0.02100
C1057       C  0.27657529  0.30726994  0.03548661    -0.14000
C1058       C  0.26226902  0.32695783  0.03483667    -0.11700
C1059       C  0.25441401  0.33608320  0.00006831     0.01600
C1060       C  0.26116206  0.32531252  0.96569095    -0.23900
H1061       H  0.33292458  0.24287440  0.05783614     0.09600
H1062       H  0.29947891  0.26800394  0.06145438     0.13200
H1063       H  0.34203932  0.25701143  0.93600413     0.11900
H1064       H  0.31269541  0.27942641  0.90308640     0.13100
H1065       H  0.28090643  0.30691292  0.90412533     0.12100
H1066       H  0.28229941  0.30158975  0.06330173     0.09200
H1067       H  0.25751288  0.33533011  0.06169935     0.12500
H1068       H  0.25577602  0.33294712  0.93870543     0.14400
loop_ 
_geom_bond_atom_site_label_1 
_geom_bond_atom_site_label_2 
_geom_bond_distance 
_geom_bond_site_symmetry_2 
_ccdc_geom_bond_type 
Zn1           O5   1.963       .  S
Zn1           O6   2.008       .  S
Zn1          O10   2.031       .  S
Zn1          O17   2.031       .  S
Zn2           O5   1.976   1_554  S
Zn2           O7   2.043       .  S
Zn2           O9   2.060       .  S
Zn2          O13   2.050       .  S
Zn3           O5   1.944   1_554  S
Zn3           O8   2.000       .  S
Zn3          O11   1.998       .  S
Zn3          O14   2.002       .  S
Zn4           O5   1.959       .  S
Zn4          O12   2.045       .  S
Zn4          O15   2.017       .  S
Zn4          O16   2.003       .  S
O6           C18   1.274       .  A
O7           C19   1.276       .  A
O8           C20   1.273   1_554  A
O9           C18   1.279   1_554  A
O10          C20   1.275       .  A
O11          C19   1.271       .  A
O12          C21   1.274       .  A
O13          C22   1.279   1_554  A
O14          C21   1.271   1_554  A
O15          C22   1.276       .  A
O16          C23   1.272       .  A
O17          C23   1.275       .  A
C18        C1037   1.487       .  S
C19         C959   1.477       .  S
C20        C1015   1.482       .  S
C21         C981   1.477       .  S
C22        C1047   1.480       .  S
C23         C937   1.476       .  S
Zn24         O28   1.961       .  S
Zn24         O29   2.024       .  S
Zn24         O33   2.038       .  S
Zn24         O40   2.012       .  S
Zn25         O28   1.955       .  S
Zn25         O30   2.029       .  S
Zn25         O32   2.018       .  S
Zn25         O36   2.002       .  S
Zn26         O28   1.949       .  S
Zn26         O31   2.004       .  S
Zn26         O34   2.018       .  S
Zn26         O37   2.003       .  S
Zn27         O28   1.983       .  S
Zn27         O35   2.038       .  S
Zn27         O38   2.040       .  S
Zn27         O39   2.050       .  S
O29          C41   1.274       .  A
O30          C42   1.275       .  A
O31          C43   1.272       .  A
O32          C41   1.273       .  A
O33          C43   1.275       .  A
O34          C42   1.274       .  A
O35          C44   1.275       .  A
O36          C45   1.274       .  A
O37          C44   1.272       .  A
O38          C45   1.276       .  A
O39          C46   1.278       .  A
O40          C46   1.276       .  A
C41         C971   1.479       .  S
C42         C871   1.486       .  S
C43         C849   1.484       .  S
C44         C949   1.471       .  S
C45         C905   1.484       .  S
C46         C915   1.486       .  S
Zn47         O51   1.983   1_556  S
Zn47         O52   2.050       .  S
Zn47         O56   2.058       .  S
Zn47         O63   2.051       .  S
Zn48         O51   1.934   1_556  S
Zn48         O53   2.010       .  S
Zn48         O55   1.985       .  S
Zn48         O59   2.009       .  S
Zn49         O51   1.941       .  S
Zn49         O54   2.010       .  S
Zn49         O57   2.022       .  S
Zn49         O60   2.007       .  S
Zn50         O51   1.948       .  S
Zn50         O58   2.023       .  S
Zn50         O61   2.049       .  S
Zn50         O62   2.002       .  S
O52          C64   1.276       .  A
O53          C65   1.272   1_556  A
O54          C66   1.275       .  A
O55          C64   1.273       .  A
O56          C66   1.279   1_556  A
O57          C65   1.273       .  A
O58          C67   1.275       .  A
O59          C68   1.273       .  A
O60          C67   1.273       .  A
O61          C68   1.277   1_554  A
O62          C69   1.275       .  A
O63          C69   1.279   1_556  A
C64         C817   1.483       .  S
C65         C739   1.477       .  S
C66        C1025   1.482       .  S
C67         C839   1.483       .  S
C68         C773   1.490       .  S
C69         C783   1.484       .  S
Zn70         O74   1.947       .  S
Zn70         O75   2.026       .  S
Zn70         O79   1.991       .  S
Zn70         O86   2.002       .  S
Zn71         O74   1.947       .  S
Zn71         O76   1.990       .  S
Zn71         O78   2.028       .  S
Zn71         O82   2.014       .  S
Zn72         O74   1.995       .  S
Zn72         O77   2.060       .  S
Zn72         O80   2.045       .  S
Zn72         O83   2.059       .  S
Zn73         O74   1.960       .  S
Zn73         O81   2.007       .  S
Zn73         O84   2.035       .  S
Zn73         O85   2.028       .  S
O75          C87   1.273       .  A
O76          C88   1.273       .  A
O77          C89   1.279       .  A
O78          C87   1.273       .  A
O79          C89   1.273       .  A
O80          C88   1.276       .  A
O81          C90   1.275       .  A
O82          C91   1.274       .  A
O83          C90   1.279       .  A
O84          C91   1.275       .  A
O85          C92   1.274       .  A
O86          C92   1.272       .  A
C87         C673   1.482       .  S
C88         C805   1.483       .  S
C89         C893   1.485       .  S
C90         C729   1.489       .  S
C91         C695   1.487       .  S
C92         C827   1.483       .  S
Zn93         O97   1.948       .  S
Zn93         O98   2.024       .  S
Zn93        O102   2.012       .  S
Zn93        O109   1.993       .  S
Zn94         O97   1.955   1_556  S
Zn94         O99   2.030       .  S
Zn94        O101   2.023       .  S
Zn94        O105   1.996       .  S
Zn95         O97   1.946       .  S
Zn95        O100   2.018       .  S
Zn95        O103   2.015       .  S
Zn95        O106   1.996       .  S
Zn96         O97   1.990   1_556  S
Zn96        O104   2.059       .  S
Zn96        O107   2.041       .  S
Zn96        O108   2.055       .  S
O98         C110   1.274   1_554  A
O99         C111   1.274       .  A
O100        C112   1.273       .  A
O101        C110   1.274       .  A
O102        C112   1.272       .  A
O103        C111   1.274   1_554  A
O104        C113   1.279   1_556  A
O105        C114   1.274       .  A
O106        C113   1.273       .  A
O107        C114   1.276       .  A
O108        C115   1.278   1_556  A
O109        C115   1.274       .  A
C110        C585   1.485       .  S
C111        C993   1.484       .  S
C112        C651   1.484       .  S
C113        C607   1.489       .  S
C114        C629   1.483       .  S
C115        C795   1.484       .  S
Zn116       O120   1.987       .  S
Zn116       O121   2.062       .  S
Zn116       O125   2.042       .  S
Zn116       O132   2.057       .  S
Zn117       O120   1.950       .  S
Zn117       O122   2.029       .  S
Zn117       O124   2.001       .  S
Zn117       O128   2.007       .  S
Zn118       O120   1.939       .  S
Zn118       O123   1.986       .  S
Zn118       O126   1.993       .  S
Zn118       O129   2.010       .  S
Zn119       O120   1.956       .  S
Zn119       O127   2.040       .  S
Zn119       O130   2.029       .  S
Zn119       O131   2.010       .  S
O121        C133   1.279       .  A
O122        C134   1.274       .  A
O123        C135   1.272       .  A
O124        C133   1.274       .  A
O125        C135   1.276       .  A
O126        C134   1.271       .  A
O127        C136   1.275       .  A
O128        C137   1.273       .  A
O129        C136   1.273       .  A
O130        C137   1.276       .  A
O131        C138   1.276       .  A
O132        C138   1.280       .  A
C133        C717   1.487       .  S
C134        C541   1.480       .  S
C135        C641   1.483       .  S
C136        C861   1.488       .  S
C137        C663   1.484       .  S
C138        C563   1.484       .  S
Zn139       O143   1.957       .  S
Zn139       O144   1.998       .  S
Zn139       O148   2.033       .  S
Zn139       O155   2.023       .  S
Zn140       O143   1.979       .  S
Zn140       O145   2.048       .  S
Zn140       O147   2.042       .  S
Zn140       O151   2.053       .  S
Zn141       O143   1.945   1_556  S
Zn141       O146   2.018       .  S
Zn141       O149   2.012       .  S
Zn141       O152   2.014       .  S
Zn142       O143   1.949   1_556  S
Zn142       O150   2.022       .  S
Zn142       O153   2.009       .  S
Zn142       O154   2.026       .  S
O144        C156   1.274       .  A
O145        C157   1.277       .  A
O146        C158   1.273   1_556  A
O147        C156   1.276       .  A
O148        C158   1.274       .  A
O149        C157   1.274   1_556  A
O150        C159   1.274       .  A
O151        C160   1.278       .  A
O152        C159   1.274       .  A
O153        C160   1.275   1_556  A
O154        C161   1.276   1_556  A
O155        C161   1.274       .  A
C156        C519   1.485       .  S
C157        C619   1.472       .  S
C158        C465   1.479       .  S
C159        C497   1.483       .  S
C160        C475   1.489   1_554  S
C161        C751   1.482       .  S
Zn162       O166   1.948       .  S
Zn162       O167   2.000       .  S
Zn162       O171   2.025       .  S
Zn162       O178   2.032       .  S
Zn163       O166   1.980       .  S
Zn163       O168   2.059       .  S
Zn163       O170   2.050       .  S
Zn163       O174   2.047       .  S
Zn164       O166   1.939       .  S
Zn164       O169   2.015       .  S
Zn164       O172   2.009       .  S
Zn164       O175   2.023       .  S
Zn165       O166   1.946       .  S
Zn165       O173   2.026       .  S
Zn165       O176   1.994       .  S
Zn165       O177   2.029       .  S
O167        C179   1.273       .  A
O168        C180   1.279       .  A
O169        C181   1.275       .  A
O170        C179   1.278       .  A
O171        C181   1.275       .  A
O172        C180   1.274       .  A
O173        C182   1.274       .  A
O174        C183   1.277       .  A
O175        C182   1.275       .  A
O176        C183   1.273       .  A
O177        C184   1.275       .  A
O178        C184   1.275       .  A
C179        C431   1.475       .  S
C180        C575   1.485       .  S
C181        C509   1.484       .  S
C182        C409   1.479       .  S
C183        C531   1.485       .  S
C184        C685   1.486       .  S
Zn185       O189   1.943   1_554  S
Zn185       O190   1.986       .  S
Zn185       O194   2.008       .  S
Zn185       O201   1.993       .  S
Zn186       O189   1.960       .  S
Zn186       O191   2.020       .  S
Zn186       O193   2.034       .  S
Zn186       O197   2.011       .  S
Zn187       O189   1.957       .  S
Zn187       O192   2.039       .  S
Zn187       O195   2.019       .  S
Zn187       O198   2.007       .  S
Zn188       O189   1.980   1_554  S
Zn188       O196   2.046       .  S
Zn188       O199   2.063       .  S
Zn188       O200   2.038       .  S
O190        C202   1.271   1_554  A
O191        C203   1.274       .  A
O192        C204   1.275       .  A
O193        C202   1.274       .  A
O194        C204   1.272   1_554  A
O195        C203   1.273       .  A
O196        C205   1.278   1_554  A
O197        C206   1.276       .  A
O198        C205   1.275       .  A
O199        C206   1.280   1_554  A
O200        C207   1.275       .  A
O201        C207   1.270       .  A
C202       C1003   1.479   1_556  S
C203        C377   1.479       .  S
C204        C597   1.475       .  S
C205        C343   1.478       .  S
C206        C487   1.491       .  S
C207        C399   1.474       .  S
Zn208       O212   1.939       .  S
Zn208       O213   1.990       .  S
Zn208       O217   2.002       .  S
Zn208       O224   1.999       .  S
Zn209       O212   1.982       .  S
Zn209       O214   2.052       .  S
Zn209       O216   2.049       .  S
Zn209       O220   2.062       .  S
Zn210       O212   1.957       .  S
Zn210       O215   2.041       .  S
Zn210       O218   2.002       .  S
Zn210       O221   2.019       .  S
Zn211       O212   1.946       .  S
Zn211       O219   2.012       .  S
Zn211       O222   1.993       .  S
Zn211       O223   2.024       .  S
O213        C225   1.271       .  A
O214        C226   1.280       .  A
O215        C227   1.274       .  A
O216        C225   1.276       .  A
O217        C227   1.271       .  A
O218        C226   1.275       .  A
O219        C228   1.272       .  A
O220        C229   1.278       .  A
O221        C228   1.274       .  A
O222        C229   1.272       .  A
O223        C230   1.275       .  A
O224        C230   1.272       .  A
C225        C365   1.474       .  S
C226        C443   1.484       .  S
C227        C883   1.486       .  S
C228        C387   1.471       .  S
C229        C321   1.490       .  S
C230        C553   1.480       .  S
Zn231       O235   1.950       .  S
Zn231       O236   1.999       .  S
Zn231       O240   2.005       .  S
Zn231       O247   2.012       .  S
Zn232       O235   1.973       .  S
Zn232       O237   2.046       .  S
Zn232       O239   2.025       .  S
Zn232       O243   2.041       .  S
Zn233       O235   1.963   1_554  S
Zn233       O238   2.037       .  S
Zn233       O241   2.025       .  S
Zn233       O244   2.009       .  S
Zn234       O235   1.967   1_554  S
Zn234       O242   2.013       .  S
Zn234       O245   2.017       .  S
Zn234       O246   2.045       .  S
O236        C248   1.273       .  A
O237        C249   1.277       .  A
O238        C250   1.275   1_554  A
O239        C248   1.274       .  A
O240        C250   1.272       .  A
O241        C249   1.275   1_554  A
O242        C251   1.273       .  A
O243        C252   1.277       .  A
O244        C251   1.273       .  A
O245        C252   1.274   1_554  A
O246        C253   1.276   1_554  A
O247        C253   1.273       .  A
C248        C277   1.482       .  S
C249       C1059   1.480   1_556  S
C250        C453   1.482       .  S
C251        C311   1.479       .  S
C252        C355   1.474       .  S
C253        C761   1.490       .  S
Zn254       O258   1.942       .  S
Zn254       O259   1.981       .  S
Zn254       O263   1.994       .  S
Zn254       O270   2.025       .  S
Zn255       O258   1.965       .  S
Zn255       O260   2.009       .  S
Zn255       O262   2.040       .  S
Zn255       O266   2.048       .  S
Zn256       O258   1.988       .  S
Zn256       O261   2.061       .  S
Zn256       O264   2.056       .  S
Zn256       O267   2.045       .  S
Zn257       O258   1.941       .  S
Zn257       O265   1.985       .  S
Zn257       O268   1.996       .  S
Zn257       O269   2.011       .  S
O259        C271   1.270       .  A
O260        C272   1.276       .  A
O261        C273   1.279       .  A
O262        C271   1.275       .  A
O263        C273   1.274       .  A
O264        C272   1.279       .  A
O265        C274   1.272       .  A
O266        C275   1.277       .  A
O267        C274   1.277       .  A
O268        C275   1.272       .  A
O269        C276   1.272       .  A
O270        C276   1.272       .  A
C271        C299   1.479       .  S
C272        C333   1.490       .  S
C273        C927   1.485       .  S
C274        C289   1.483       .  S
C275        C707   1.487       .  S
C276        C421   1.481       .  S
C277        C278   1.402       .  A
C277        C282   1.401       .  A
C278        C279   1.400       .  A
C278        H291   1.083       .  S
C279        C280   1.416       .  A
C279        H292   1.077       .  S
C280        C286   1.431       .  A
C280        C281   1.422       .  A
C281        C283   1.398       .  A
C281        C282   1.400       .  A
C282        H293   1.084       .  S
C283        C284   1.385       .  A
C283        H294   1.084       .  S
C284        C285   1.398       .  A
C284        H295   1.084       .  S
C285        C286   1.421       .  A
C285        C290   1.399       .  A
C286        C287   1.417       .  A
C287        C288   1.401       .  A
C287        H296   1.077       .  S
C288        C289   1.401       .  A
C288        H297   1.083       .  S
C289        C290   1.402       .  A
C290        H298   1.084       .  S
C299        C300   1.401       .  A
C299        C304   1.401       .  A
C300        C301   1.391       .  A
C300        H313   1.083       .  S
C301        C302   1.412       .  A
C301        H314   1.077       .  S
C302        C308   1.428       .  A
C302        C303   1.424       .  A
C303        C305   1.399       .  A
C303        C304   1.407       .  A
C304        H315   1.084       .  S
C305        C306   1.391       .  A
C305        H316   1.084       .  S
C306        C307   1.400       .  A
C306        H317   1.084       .  S
C307        C308   1.421       .  A
C307        C312   1.405       .  A
C308        C309   1.415       .  A
C309        C310   1.393       .  A
C309        H318   1.077       .  S
C310        C311   1.400       .  A
C310        H319   1.083       .  S
C311        C312   1.403       .  A
C312        H320   1.084       .  S
C321        C322   1.403       .  A
C321        C326   1.403       .  A
C322        C323   1.406       .  A
C322        H335   1.083       .  S
C323        C324   1.418       .  A
C323        H336   1.078       .  S
C324        C330   1.436   1_655  A
C324        C325   1.422       .  A
C325        C327   1.398       .  A
C325        C326   1.401       .  A
C326        H337   1.084       .  S
C327        C328   1.385   1_655  A
C327        H338   1.084       .  S
C328        C329   1.398       .  A
C328        H339   1.084       .  S
C329        C330   1.422       .  A
C329        C334   1.401       .  A
C330        C331   1.417       .  A
C331        C332   1.405       .  A
C331        H340   1.078       .  S
C332        C333   1.404       .  A
C332        H341   1.083       .  S
C333        C334   1.402       .  A
C334        H342   1.084       .  S
C343        C344   1.399       .  A
C343        C348   1.402   1_556  A
C344        C345   1.394       .  A
C344        H357   1.084       .  S
C345        C346   1.413       .  A
C345        H358   1.078       .  S
C346        C352   1.429   1_655  A
C346        C347   1.423   1_556  A
C347        C349   1.401       .  A
C347        C348   1.410       .  A
C348        H359   1.084       .  S
C349        C350   1.393   1_655  A
C349        H360   1.084       .  S
C350        C351   1.401       .  A
C350        H361   1.084       .  S
C351        C352   1.422   1_554  A
C351        C356   1.408       .  A
C352        C353   1.416       .  A
C353        C354   1.397       .  A
C353        H362   1.078       .  S
C354        C355   1.397       .  A
C354        H363   1.084       .  S
C355        C356   1.402   1_556  A
C356        H364   1.085       .  S
C365        C366   1.399       .  A
C365        C370   1.400       .  A
C366        C367   1.394       .  A
C366        H379   1.084       .  S
C367        C368   1.414       .  A
C367        H380   1.077       .  S
C368        C374   1.429       .  A
C368        C369   1.423       .  A
C369        C371   1.400       .  A
C369        C370   1.409       .  A
C370        H381   1.085       .  S
C371        C372   1.392       .  A
C371        H382   1.084       .  S
C372        C373   1.401       .  A
C372        H383   1.084       .  S
C373        C374   1.422       .  A
C373        C378   1.408       .  A
C374        C375   1.415       .  A
C375        C376   1.395       .  A
C375        H384   1.077       .  S
C376        C377   1.399       .  A
C376        H385   1.083       .  S
C377        C378   1.403       .  A
C378        H386   1.084       .  S
C387        C388   1.399       .  A
C387        C392   1.397       .  A
C388        C389   1.397       .  A
C388        H401   1.084       .  S
C389        C390   1.415       .  A
C389        H402   1.078       .  S
C390        C396   1.429       .  A
C390        C391   1.424       .  A
C391        C393   1.398       .  A
C391        C392   1.403       .  A
C392        H403   1.085       .  S
C393        C394   1.388       .  A
C393        H404   1.084       .  S
C394        C395   1.399       .  A
C394        H405   1.084       .  S
C395        C396   1.422       .  A
C395        C400   1.402       .  A
C396        C397   1.417       .  A
C397        C398   1.399       .  A
C397        H406   1.078       .  S
C398        C399   1.399       .  A
C398        H407   1.083       .  S
C399        C400   1.400       .  A
C400        H408   1.085       .  S
C409        C410   1.401       .  A
C409        C414   1.399       .  A
C410        C411   1.400       .  A
C410        H423   1.083       .  S
C411        C412   1.416       .  A
C411        H424   1.078       .  S
C412        C418   1.432       .  A
C412        C413   1.423       .  A
C413        C415   1.398       .  A
C413        C414   1.404       .  A
C414        H425   1.085       .  S
C415        C416   1.388       .  A
C415        H426   1.084       .  S
C416        C417   1.398       .  A
C416        H427   1.084       .  S
C417        C418   1.422       .  A
C417        C422   1.403       .  A
C418        C419   1.416       .  A
C419        C420   1.401       .  A
C419        H428   1.078       .  S
C420        C421   1.402       .  A
C420        H429   1.083       .  S
C421        C422   1.400       .  A
C422        H430   1.085       .  S
C431        C432   1.399       .  A
C431        C436   1.398       .  A
C432        C433   1.404       .  A
C432        H445   1.083       .  S
C433        C434   1.418       .  A
C433        H446   1.078       .  S
C434        C440   1.433   1_565  A
C434        C435   1.422       .  A
C435        C437   1.398       .  A
C435        C436   1.400       .  A
C436        H447   1.085       .  S
C437        C438   1.386   1_565  A
C437        H448   1.084       .  S
C438        C439   1.398       .  A
C438        H449   1.084       .  S
C439        C440   1.422       .  A
C439        C444   1.401       .  A
C440        C441   1.417       .  A
C441        C442   1.403       .  A
C441        H450   1.078       .  S
C442        C443   1.402       .  A
C442        H451   1.083       .  S
C443        C444   1.402       .  A
C444        H452   1.085       .  S
C453        C454   1.401       .  A
C453        C458   1.403   1_556  A
C454        C455   1.396       .  A
C454        H467   1.083       .  S
C455        C456   1.414       .  A
C455        H468   1.077       .  S
C456        C462   1.431       .  A
C456        C457   1.423   1_556  A
C457        C459   1.400       .  A
C457        C458   1.408       .  A
C458        H469   1.084       .  S
C459        C460   1.392       .  A
C459        H470   1.084       .  S
C460        C461   1.400       .  A
C460        H471   1.084       .  S
C461        C462   1.423   1_554  A
C461        C466   1.409       .  A
C462        C463   1.414       .  A
C463        C464   1.396       .  A
C463        H472   1.077       .  S
C464        C465   1.399   1_556  A
C464        H473   1.084       .  S
C465        C466   1.402       .  A
C466        H474   1.084       .  S
C475        C476   1.403   1_556  A
C475        C480   1.402       .  A
C476        C477   1.405       .  A
C476        H489   1.083       .  S
C477        C478   1.418   1_554  A
C477        H490   1.078       .  S
C478        C484   1.437   1_565  A
C478        C479   1.423       .  A
C479        C481   1.398       .  A
C479        C480   1.402       .  A
C480        H491   1.085       .  S
C481        C482   1.386   1_565  A
C481        H492   1.084       .  S
C482        C483   1.398       .  A
C482        H493   1.084       .  S
C483        C484   1.422       .  A
C483        C488   1.402       .  A
C484        C485   1.418   1_556  A
C485        C486   1.406       .  A
C485        H494   1.078       .  S
C486        C487   1.404   1_554  A
C486        H495   1.083       .  S
C487        C488   1.403       .  A
C488        H496   1.084       .  S
C497        C498   1.401       .  A
C497        C502   1.403       .  A
C498        C499   1.395       .  A
C498        H511   1.083       .  S
C499        C500   1.414       .  A
C499        H512   1.077       .  S
C500        C506   1.430       .  A
C500        C501   1.422       .  A
C501        C503   1.400       .  A
C501        C502   1.407       .  A
C502        H513   1.084       .  S
C503        C504   1.391       .  A
C503        H514   1.084       .  S
C504        C505   1.400       .  A
C504        H515   1.084       .  S
C505        C506   1.422       .  A
C505        C510   1.407       .  A
C506        C507   1.414       .  A
C507        C508   1.395       .  A
C507        H516   1.077       .  S
C508        C509   1.402       .  A
C508        H517   1.083       .  S
C509        C510   1.404       .  A
C510        H518   1.084       .  S
C519        C520   1.403       .  A
C519        C524   1.401       .  A
C520        C521   1.403       .  A
C520        H533   1.083       .  S
C521        C522   1.417       .  A
C521        H534   1.078       .  S
C522        C528   1.433       .  A
C522        C523   1.422       .  A
C523        C525   1.397       .  A
C523        C524   1.399       .  A
C524        H535   1.084       .  S
C525        C526   1.384       .  A
C525        H536   1.084       .  S
C526        C527   1.397       .  A
C526        H537   1.084       .  S
C527        C528   1.422       .  A
C527        C532   1.399       .  A
C528        C529   1.417       .  A
C529        C530   1.403       .  A
C529        H538   1.078       .  S
C530        C531   1.403       .  A
C530        H539   1.083       .  S
C531        C532   1.401       .  A
C532        H540   1.084       .  S
C541        C542   1.401       .  A
C541        C546   1.402       .  A
C542        C543   1.392       .  A
C542        H555   1.083       .  S
C543        C544   1.413       .  A
C543        H556   1.077       .  S
C544        C550   1.428       .  A
C544        C545   1.422       .  A
C545        C547   1.400       .  A
C545        C546   1.407       .  A
C546        H557   1.084       .  S
C547        C548   1.391       .  A
C547        H558   1.084       .  S
C548        C549   1.400       .  A
C548        H559   1.084       .  S
C549        C550   1.422       .  A
C549        C554   1.406       .  A
C550        C551   1.414       .  A
C551        C552   1.393       .  A
C551        H560   1.077       .  S
C552        C553   1.401       .  A
C552        H561   1.083       .  S
C553        C554   1.402       .  A
C554        H562   1.084       .  S
C563        C564   1.401       .  A
C563        C568   1.402       .  A
C564        C565   1.405       .  A
C564        H577   1.083       .  S
C565        C566   1.418       .  A
C565        H578   1.078       .  S
C566        C572   1.435       .  A
C566        C567   1.422       .  A
C567        C569   1.399       .  A
C567        C568   1.402       .  A
C568        H579   1.085       .  S
C569        C570   1.387       .  A
C569        H580   1.084       .  S
C570        C571   1.399       .  A
C570        H581   1.084       .  S
C571        C572   1.423       .  A
C571        C576   1.403       .  A
C572        C573   1.418       .  A
C573        C574   1.405       .  A
C573        H582   1.078       .  S
C574        C575   1.402       .  A
C574        H583   1.083       .  S
C575        C576   1.402       .  A
C576        H584   1.085       .  S
C585        C586   1.402   1_556  A
C585        C590   1.404       .  A
C586        C587   1.397       .  A
C586        H599   1.083       .  S
C587        C588   1.415   1_554  A
C587        H600   1.078       .  S
C588        C594   1.431       .  A
C588        C589   1.422       .  A
C589        C591   1.400       .  A
C589        C590   1.407       .  A
C590        H601   1.084       .  S
C591        C592   1.391       .  A
C591        H602   1.084       .  S
C592        C593   1.400       .  A
C592        H603   1.084       .  S
C593        C594   1.423       .  A
C593        C598   1.408       .  A
C594        C595   1.415   1_556  A
C595        C596   1.397       .  A
C595        H604   1.077       .  S
C596        C597   1.399   1_554  A
C596        H605   1.084       .  S
C597        C598   1.400       .  A
C598        H606   1.085       .  S
C607        C608   1.403   1_554  A
C607        C612   1.403       .  A
C608        C609   1.405       .  A
C608        H621   1.083       .  S
C609        C610   1.418   1_556  A
C609        H622   1.078       .  S
C610        C616   1.434       .  A
C610        C611   1.421       .  A
C611        C613   1.399       .  A
C611        C612   1.401       .  A
C612        H623   1.084       .  S
C613        C614   1.386       .  A
C613        H624   1.084       .  S
C614        C615   1.397       .  A
C614        H625   1.084       .  S
C615        C616   1.424       .  A
C615        C620   1.402       .  A
C616        C617   1.418   1_554  A
C617        C618   1.404       .  A
C617        H626   1.078       .  S
C618        C619   1.399   1_556  A
C618        H627   1.083       .  S
C619        C620   1.396       .  A
C620        H628   1.085       .  S
C629        C630   1.403       .  A
C629        C634   1.400       .  A
C630        C631   1.403       .  A
C630        H643   1.083       .  S
C631        C632   1.417       .  A
C631        H644   1.078       .  S
C632        C638   1.432       .  A
C632        C633   1.422       .  A
C633        C635   1.397       .  A
C633        C634   1.398       .  A
C634        H645   1.085       .  S
C635        C636   1.384       .  A
C635        H646   1.084       .  S
C636        C637   1.397       .  A
C636        H647   1.084       .  S
C637        C638   1.422       .  A
C637        C642   1.398       .  A
C638        C639   1.417       .  A
C639        C640   1.403       .  A
C639        H648   1.078       .  S
C640        C641   1.402       .  A
C640        H649   1.083       .  S
C641        C642   1.401       .  A
C642        H650   1.085       .  S
C651        C652   1.402       .  A
C651        C656   1.403       .  A
C652        C653   1.396       .  A
C652        H665   1.083       .  S
C653        C654   1.415       .  A
C653        H666   1.077       .  S
C654        C660   1.430       .  A
C654        C655   1.422       .  A
C655        C657   1.400       .  A
C655        C656   1.406       .  A
C656        H667   1.084       .  S
C657        C658   1.390       .  A
C657        H668   1.084       .  S
C658        C659   1.399       .  A
C658        H669   1.084       .  S
C659        C660   1.423       .  A
C659        C664   1.406       .  A
C660        C661   1.414       .  A
C661        C662   1.395       .  A
C661        H670   1.077       .  S
C662        C663   1.402       .  A
C662        H671   1.083       .  S
C663        C664   1.402       .  A
C664        H672   1.084       .  S
C673        C674   1.400       .  A
C673        C678   1.403       .  A
C674        C675   1.397       .  A
C674        H687   1.083       .  S
C675        C676   1.415       .  A
C675        H688   1.078       .  S
C676        C682   1.431       .  A
C676        C677   1.422       .  A
C677        C679   1.400       .  A
C677        C678   1.409       .  A
C678        H689   1.084       .  S
C679        C680   1.393       .  A
C679        H690   1.084       .  S
C680        C681   1.401       .  A
C680        H691   1.084       .  S
C681        C682   1.422       .  A
C681        C686   1.409       .  A
C682        C683   1.414       .  A
C683        C684   1.397       .  A
C683        H692   1.078       .  S
C684        C685   1.401       .  A
C684        H693   1.083       .  S
C685        C686   1.404       .  A
C686        H694   1.084       .  S
C695        C696   1.402       .  A
C695        C700   1.405       .  A
C696        C697   1.395       .  A
C696        H709   1.083       .  S
C697        C698   1.414       .  A
C697        H710   1.077       .  S
C698        C704   1.431       .  A
C698        C699   1.422       .  A
C699        C701   1.401       .  A
C699        C700   1.410       .  A
C700        H711   1.084       .  S
C701        C702   1.393       .  A
C701        H712   1.084       .  S
C702        C703   1.400       .  A
C702        H713   1.084       .  S
C703        C704   1.423       .  A
C703        C708   1.410       .  A
C704        C705   1.413       .  A
C705        C706   1.394       .  A
C705        H714   1.077       .  S
C706        C707   1.403       .  A
C706        H715   1.083       .  S
C707        C708   1.404       .  A
C708        H716   1.084       .  S
C717        C718   1.401       .  A
C717        C722   1.406       .  A
C718        C719   1.392       .  A
C718        H731   1.084       .  S
C719        C720   1.413       .  A
C719        H732   1.076       .  S
C720        C726   1.431   1_655  A
C720        C721   1.423       .  A
C721        C723   1.402       .  A
C721        C722   1.414       .  A
C722        H733   1.084       .  S
C723        C724   1.396   1_655  A
C723        H734   1.084       .  S
C724        C725   1.402       .  A
C724        H735   1.084       .  S
C725        C726   1.423       .  A
C725        C730   1.414       .  A
C726        C727   1.413       .  A
C727        C728   1.392       .  A
C727        H736   1.076       .  S
C728        C729   1.402       .  A
C728        H737   1.083       .  S
C729        C730   1.407       .  A
C730        H738   1.084       .  S
C739        C740   1.399   1_554  A
C739        C744   1.402       .  A
C740        C741   1.395       .  A
C740        H753   1.084       .  S
C741        C742   1.414   1_556  A
C741        H754   1.077       .  S
C742        C748   1.429       .  A
C742        C743   1.422       .  A
C743        C745   1.401       .  A
C743        C744   1.407       .  A
C744        H755   1.085       .  S
C745        C746   1.393       .  A
C745        H756   1.084       .  S
C746        C747   1.401       .  A
C746        H757   1.084       .  S
C747        C748   1.422       .  A
C747        C752   1.408       .  A
C748        C749   1.414   1_554  A
C749        C750   1.395       .  A
C749        H758   1.077       .  S
C750        C751   1.400   1_556  A
C750        H759   1.083       .  S
C751        C752   1.404       .  A
C752        H760   1.084       .  S
C761        C762   1.403   1_556  A
C761        C766   1.404       .  A
C762        C763   1.402       .  A
C762        H775   1.083       .  S
C763        C764   1.416   1_554  A
C763        H776   1.078       .  S
C764        C770   1.435       .  A
C764        C765   1.422       .  A
C765        C767   1.399       .  A
C765        C766   1.405       .  A
C766        H777   1.084       .  S
C767        C768   1.389       .  A
C767        H778   1.084       .  S
C768        C769   1.399       .  A
C768        H779   1.084       .  S
C769        C770   1.422       .  A
C769        C774   1.405       .  A
C770        C771   1.417   1_556  A
C771        C772   1.403       .  A
C771        H780   1.078       .  S
C772        C773   1.402   1_554  A
C772        H781   1.083       .  S
C773        C774   1.405       .  A
C774        H782   1.084       .  S
C783        C784   1.401       .  A
C783        C788   1.405   1_554  A
C784        C785   1.391       .  A
C784        H797   1.084       .  S
C785        C786   1.413       .  A
C785        H798   1.076       .  S
C786        C792   1.429   1_455  A
C786        C787   1.423   1_554  A
C787        C789   1.401       .  A
C787        C788   1.412       .  A
C788        H799   1.084       .  S
C789        C790   1.395   1_455  A
C789        H800   1.084       .  S
C790        C791   1.401       .  A
C790        H801   1.084       .  S
C791        C792   1.423   1_556  A
C791        C796   1.412       .  A
C792        C793   1.412       .  A
C793        C794   1.390       .  A
C793        H802   1.076       .  S
C794        C795   1.401       .  A
C794        H803   1.084       .  S
C795        C796   1.405   1_554  A
C796        H804   1.084       .  S
C805        C806   1.400       .  A
C805        C810   1.406       .  A
C806        C807   1.387       .  A
C806        H819   1.083       .  S
C807        C808   1.412       .  A
C807        H820   1.076       .  S
C808        C814   1.426       .  A
C808        C809   1.422       .  A
C809        C811   1.402       .  A
C809        C810   1.413       .  A
C810        H821   1.084       .  S
C811        C812   1.397       .  A
C811        H822   1.084       .  S
C812        C813   1.402       .  A
C812        H823   1.084       .  S
C813        C814   1.422       .  A
C813        C818   1.414       .  A
C814        C815   1.411       .  A
C815        C816   1.386       .  A
C815        H824   1.076       .  S
C816        C817   1.400       .  A
C816        H825   1.083       .  S
C817        C818   1.406       .  A
C818        H826   1.084       .  S
C827        C828   1.402       .  A
C827        C832   1.402       .  A
C828        C829   1.395       .  A
C828        H841   1.083       .  S
C829        C830   1.414       .  A
C829        H842   1.077       .  S
C830        C836   1.429       .  A
C830        C831   1.422       .  A
C831        C833   1.399       .  A
C831        C832   1.406       .  A
C832        H843   1.084       .  S
C833        C834   1.390       .  A
C833        H844   1.084       .  S
C834        C835   1.399       .  A
C834        H845   1.084       .  S
C835        C836   1.422       .  A
C835        C840   1.405       .  A
C836        C837   1.414       .  A
C837        C838   1.395       .  A
C837        H846   1.077       .  S
C838        C839   1.402       .  A
C838        H847   1.083       .  S
C839        C840   1.403       .  A
C840        H848   1.084       .  S
C849        C850   1.401       .  A
C849        C854   1.403       .  A
C850        C851   1.395       .  A
C850        H863   1.083       .  S
C851        C852   1.414       .  A
C851        H864   1.077       .  S
C852        C858   1.431       .  A
C852        C853   1.423       .  A
C853        C855   1.400       .  A
C853        C854   1.409       .  A
C854        H865   1.084       .  S
C855        C856   1.393       .  A
C855        H866   1.084       .  S
C856        C857   1.401       .  A
C856        H867   1.084       .  S
C857        C858   1.423       .  A
C857        C862   1.410       .  A
C858        C859   1.414       .  A
C859        C860   1.395       .  A
C859        H868   1.077       .  S
C860        C861   1.402       .  A
C860        H869   1.083       .  S
C861        C862   1.405       .  A
C862        H870   1.084       .  S
C871        C872   1.403       .  A
C871        C876   1.402       .  A
C872        C873   1.401       .  A
C872        H885   1.083       .  S
C873        C874   1.416       .  A
C873        H886   1.078       .  S
C874        C880   1.434       .  A
C874        C875   1.423       .  A
C875        C877   1.398       .  A
C875        C876   1.404       .  A
C876        H887   1.084       .  S
C877        C878   1.387       .  A
C877        H888   1.084       .  S
C878        C879   1.399       .  A
C878        H889   1.084       .  S
C879        C880   1.422       .  A
C879        C884   1.402       .  A
C880        C881   1.417       .  A
C881        C882   1.403       .  A
C881        H890   1.078       .  S
C882        C883   1.402       .  A
C882        H891   1.083       .  S
C883        C884   1.402       .  A
C884        H892   1.084       .  S
C893        C894   1.402       .  A
C893        C898   1.402       .  A
C894        C895   1.404       .  A
C894        H907   1.083       .  S
C895        C896   1.418       .  A
C895        H908   1.078       .  S
C896        C902   1.434   1_565  A
C896        C897   1.422       .  A
C897        C899   1.398       .  A
C897        C898   1.400       .  A
C898        H909   1.085       .  S
C899        C900   1.385   1_565  A
C899        H910   1.084       .  S
C900        C901   1.398       .  A
C900        H911   1.084       .  S
C901        C902   1.423       .  A
C901        C906   1.401       .  A
C902        C903   1.417       .  A
C903        C904   1.403       .  A
C903        H912   1.078       .  S
C904        C905   1.402       .  A
C904        H913   1.083       .  S
C905        C906   1.401       .  A
C906        H914   1.085       .  S
C915        C916   1.401       .  A
C915        C920   1.406       .  A
C916        C917   1.392       .  A
C916        H929   1.083       .  S
C917        C918   1.413       .  A
C917        H930   1.076       .  S
C918        C924   1.430       .  A
C918        C919   1.422       .  A
C919        C921   1.402       .  A
C919        C920   1.412       .  A
C920        H931   1.084       .  S
C921        C922   1.395       .  A
C921        H932   1.084       .  S
C922        C923   1.401       .  A
C922        H933   1.084       .  S
C923        C924   1.423       .  A
C923        C928   1.413       .  A
C924        C925   1.412       .  A
C925        C926   1.391       .  A
C925        H934   1.077       .  S
C926        C927   1.402       .  A
C926        H935   1.084       .  S
C927        C928   1.405       .  A
C928        H936   1.084       .  S
C937        C938   1.400       .  A
C937        C942   1.400       .  A
C938        C939   1.400       .  A
C938        H951   1.083       .  S
C939        C940   1.416       .  A
C939        H952   1.078       .  S
C940        C946   1.431       .  A
C940        C941   1.423       .  A
C941        C943   1.399       .  A
C941        C942   1.402       .  A
C942        H953   1.085       .  S
C943        C944   1.388       .  A
C943        H954   1.084       .  S
C944        C945   1.398       .  A
C944        H955   1.084       .  S
C945        C946   1.423       .  A
C945        C950   1.402       .  A
C946        C947   1.417       .  A
C947        C948   1.400       .  A
C947        H956   1.078       .  S
C948        C949   1.398       .  A
C948        H957   1.083       .  S
C949        C950   1.398       .  A
C950        H958   1.085       .  S
C959        C960   1.401       .  A
C959        C964   1.399       .  A
C960        C961   1.396       .  A
C960        H973   1.084       .  S
C961        C962   1.414       .  A
C961        H974   1.078       .  S
C962        C968   1.430       .  A
C962        C963   1.424       .  A
C963        C965   1.399       .  A
C963        C964   1.407       .  A
C964        H975   1.085       .  S
C965        C966   1.390       .  A
C965        H976   1.084       .  S
C966        C967   1.400       .  A
C966        H977   1.084       .  S
C967        C968   1.422       .  A
C967        C972   1.405       .  A
C968        C969   1.416       .  A
C969        C970   1.398       .  A
C969        H978   1.078       .  S
C970        C971   1.400       .  A
C970        H979   1.083       .  S
C971        C972   1.401       .  A
C972        H980   1.085       .  S
C981        C982   1.398   1_556  A
C981        C986   1.401       .  A
C982        C983   1.395       .  A
C982        H995   1.084       .  S
C983        C984   1.415   1_554  A
C983        H996   1.077       .  S
C984        C990   1.431       .  A
C984        C985   1.423       .  A
C985        C987   1.401       .  A
C985        C986   1.410       .  A
C986        H997   1.085       .  S
C987        C988   1.393       .  A
C987        H998   1.084       .  S
C988        C989   1.401       .  A
C988        H999   1.084       .  S
C989        C990   1.422       .  A
C989        C994   1.409       .  A
C990        C991   1.414   1_556  A
C991        C992   1.395       .  A
C991       H1000   1.077       .  S
C992        C993   1.401   1_554  A
C992       H1001   1.083       .  S
C993        C994   1.404       .  A
C994       H1002   1.084       .  S
C1003      C1004   1.400       .  A
C1003      C1008   1.404   1_554  A
C1004      C1005   1.389       .  A
C1004      H1017   1.084       .  S
C1005      C1006   1.412       .  A
C1005      H1018   1.076       .  S
C1006      C1012   1.427       .  A
C1006      C1007   1.422   1_554  A
C1007      C1009   1.401       .  A
C1007      C1008   1.409       .  A
C1008      H1019   1.084       .  S
C1009      C1010   1.393       .  A
C1009      H1020   1.084       .  S
C1010      C1011   1.401       .  A
C1010      H1021   1.084       .  S
C1011      C1012   1.422   1_556  A
C1011      C1016   1.409       .  A
C1012      C1013   1.413       .  A
C1013      C1014   1.390       .  A
C1013      H1022   1.076       .  S
C1014      C1015   1.400   1_554  A
C1014      H1023   1.083       .  S
C1015      C1016   1.404       .  A
C1016      H1024   1.084       .  S
C1025      C1026   1.400       .  A
C1025      C1030   1.401   1_554  A
C1026      C1027   1.403       .  A
C1026      H1039   1.083       .  S
C1027      C1028   1.418   1_554  A
C1027      H1040   1.078       .  S
C1028      C1034   1.435   1_565  A
C1028      C1029   1.423       .  A
C1029      C1031   1.399       .  A
C1029      C1030   1.404       .  A
C1030      H1041   1.085       .  S
C1031      C1032   1.388   1_565  A
C1031      H1042   1.084       .  S
C1032      C1033   1.399       .  A
C1032      H1043   1.084       .  S
C1033      C1034   1.422       .  A
C1033      C1038   1.404       .  A
C1034      C1035   1.417   1_556  A
C1035      C1036   1.403       .  A
C1035      H1044   1.078       .  S
C1036      C1037   1.401   1_554  A
C1036      H1045   1.083       .  S
C1037      C1038   1.403       .  A
C1038      H1046   1.085       .  S
C1047      C1048   1.400   1_556  A
C1047      C1052   1.401       .  A
C1048      C1049   1.401       .  A
C1048      H1061   1.083       .  S
C1049      C1050   1.417       .  A
C1049      H1062   1.078       .  S
C1050      C1056   1.433       .  A
C1050      C1051   1.422   1_554  A
C1051      C1053   1.400       .  A
C1051      C1052   1.406       .  A
C1052      H1063   1.085       .  S
C1053      C1054   1.391       .  A
C1053      H1064   1.084       .  S
C1054      C1055   1.400       .  A
C1054      H1065   1.084       .  S
C1055      C1056   1.424   1_556  A
C1055      C1060   1.408       .  A
C1056      C1057   1.416       .  A
C1057      C1058   1.400       .  A
C1057      H1066   1.078       .  S
C1058      C1059   1.400       .  A
C1058      H1067   1.083       .  S
C1059      C1060   1.400   1_554  A
C1060      H1068   1.085       .  S
