geometry optimzed in LAMMPS
_audit_creation_date              2020-11-30 
_audit_creation_method            'lammps2cif' 
_symmetry_space_group_name_H-M    'P1' 
_symmetry_Int_Tables_number       1 
_symmetry_cell_setting            triclinic 
loop_ 
_symmetry_equiv_pos_as_xyz 
  x,y,z 
_cell_length_a                    40.158157888029066 
_cell_length_b                    40.045561588751234 
_cell_length_c                    58.373272607043305 
_cell_angle_alpha                 89.63225502330131 
_cell_angle_beta                  89.97982214870392 
_cell_angle_gamma                 120.14985038354709 
loop_ 
_atom_site_label 
_atom_site_type_symbol 
_atom_site_fract_x 
_atom_site_fract_y 
_atom_site_fract_z 
_atom_site_charge 
N1          N  0.59368513  0.79836177  0.21469958    -0.27410
N2          N  0.62755519  0.81673041  0.20426507    -0.35270
C3          C  0.62251336  0.81404007  0.18151508     0.00930
C4          C  0.58367802  0.79272730  0.17729077     0.06950
C5          C  0.56597052  0.78310610  0.19859280    -0.06140
H6          H  0.64552820  0.82662937  0.16898322     0.07620
H7          H  0.53539961  0.76676783  0.20210903     0.08820
Cu8        Cu  0.67985286  0.84410419  0.22040416     0.44170
Cu9        Cu  0.58774685  0.79613435  0.25039617     0.41990
Cu10       Cu  0.67935891  0.83503259  0.28068858     0.43880
N11         N  0.72935950  0.86617081  0.23927497    -0.34800
N12         N  0.72925322  0.86191614  0.26172164    -0.29050
C13         C  0.76571787  0.87858352  0.26916222    -0.05150
C14         C  0.78953050  0.89406392  0.25037816     0.07060
C15         C  0.76584510  0.88587035  0.23169887     0.00860
H16         H  0.77415741  0.87970330  0.28687259     0.08510
H17         H  0.77437674  0.89337333  0.21396896     0.07590
N18         N  0.62664576  0.81202215  0.29663055    -0.36250
N19         N  0.59324697  0.79909448  0.28610120    -0.28430
C20         C  0.56530451  0.78772440  0.30212118    -0.03670
C21         C  0.58225852  0.79363184  0.32349243     0.04940
C22         C  0.62094535  0.80873442  0.31936166     0.03040
H23         H  0.53495237  0.77510771  0.29848681     0.08140
H24         H  0.64342449  0.81681844  0.33196597     0.06980
N25         N  0.16107147  0.36417621  0.21431805    -0.27410
N26         N  0.14279815  0.33085012  0.20341616    -0.35270
C27         C  0.14504114  0.33743576  0.18073227     0.00930
C28         C  0.16575017  0.37673312  0.17710202     0.06950
C29         C  0.17562051  0.39299733  0.19865215    -0.06140
H30         H  0.13270202  0.31517417  0.16784383     0.07620
H31         H  0.19207083  0.42340087  0.20264324     0.08820
Cu32       Cu  0.11583147  0.27744701  0.21910086     0.44170
Cu33       Cu  0.16496825  0.36850158  0.25004968     0.41990
Cu34       Cu  0.11584408  0.27633527  0.28014943     0.43880
N35         N  0.09115472  0.22737808  0.23822061    -0.34800
N36         N  0.09130072  0.22697730  0.26084678    -0.29050
C37         C  0.07333793  0.19024809  0.26834370    -0.05150
C38         C  0.06140894  0.16674939  0.24943066     0.07060
C39         C  0.07298972  0.19091271  0.23060039     0.00860
H40         H  0.06921135  0.18141884  0.28616644     0.08510
H41         H  0.06862721  0.18270737  0.21274756     0.07590
N42         N  0.14331365  0.32883588  0.29634119    -0.36250
N43         N  0.16218342  0.36270215  0.28577228    -0.28430
C44         C  0.17709445  0.39065232  0.30174093    -0.03670
C45         C  0.16671374  0.37319149  0.32313685     0.04940
C46         C  0.14524700  0.33416941  0.31907844     0.03040
H47         H  0.19350614  0.42126794  0.29805491     0.08140
H48         H  0.13197083  0.31125196  0.33171488     0.06980
N49         N  0.15522328  0.79331829  0.28714192    -0.27410
N50         N  0.14356214  0.81516742  0.29724628    -0.35270
C51         C  0.14797236  0.81440946  0.31995609     0.00930
C52         C  0.16245470  0.79044159  0.32456755     0.06950
C53         C  0.16667755  0.77728739  0.30347629    -0.06140
H54         H  0.14081941  0.82998924  0.33223348     0.07620
H55         H  0.17836159  0.75862246  0.30020682     0.08820
Cu56       Cu  0.12044751  0.84429281  0.28088447     0.44170
Cu57       Cu  0.15737646  0.78935770  0.25150030     0.41990
Cu58       Cu  0.11462030  0.83831521  0.22068913     0.43880
N59         N  0.09354716  0.86705418  0.26190900    -0.34800
N60         N  0.09082542  0.86426074  0.23939430    -0.29050
C61         C  0.07108703  0.88091945  0.23176845    -0.05150
C62         C  0.06114664  0.89475464  0.25051899     0.07060
C63         C  0.07572642  0.88568922  0.26937063     0.00860
H64         H  0.06474485  0.88299067  0.21397196     0.08510
H65         H  0.07346442  0.89196469  0.28712184     0.07590
N66         N  0.14150616  0.81243447  0.20510243    -0.36250
N67         N  0.15751035  0.79482283  0.21581805    -0.28430
C68         C  0.17240438  0.78158393  0.19996495    -0.03670
C69         C  0.16512904  0.79145630  0.17853551     0.04940
C70         C  0.14544007  0.81072889  0.18240972     0.03040
H71         H  0.18672781  0.76543941  0.20373103     0.08140
H72         H  0.13444380  0.82242745  0.16967332     0.06980
N73         N  0.89145756  0.92876090  0.25022856    -0.27410
N74         N  0.89153142  0.96176768  0.24902088    -0.35270
C75         C  0.85505848  0.95444521  0.24887387     0.00930
C76         C  0.83126703  0.91503827  0.25025471     0.06950
C77         C  0.85495394  0.89945739  0.25109918    -0.06140
H78         H  0.84660897  0.97616127  0.24799307     0.07620
H79         H  0.84641079  0.86920760  0.25204350     0.08820
Cu80       Cu  0.94074582  0.01503961  0.24823428     0.44170
Cu81       Cu  0.94047522  0.92478931  0.25023529     0.41990
Cu82       Cu  0.03041248  0.01514545  0.25039945     0.43880
N83         N  0.99382543  0.06443426  0.24880652    -0.34800
N84         N  0.02671944  0.06446266  0.24974114    -0.29050
C85         C  0.05598984  0.10106720  0.25012044    -0.05150
C86         C  0.04048849  0.12487034  0.24935663     0.07060
C87         C  0.00116280  0.10102718  0.24853102     0.00860
H88         H  0.08614399  0.10959583  0.25086152     0.08510
H89         H  0.97952060  0.10952575  0.24785925     0.07590
N90         N  0.02645274  0.96199412  0.25051205    -0.36250
N91         N  0.99352224  0.92887719  0.25016111    -0.28430
C92         C  0.00082607  0.89965791  0.25001151    -0.03670
C93         C  0.04016666  0.91545325  0.25039738     0.04940
C94         C  0.05570937  0.95486580  0.25073332     0.03040
H95         H  0.97915969  0.86935034  0.24978365     0.08140
H96         H  0.08588667  0.97670772  0.25101851     0.06980
N97         N  0.79395414  0.26244761  0.95872383    -0.27410
N98         N  0.81564518  0.27074166  0.94016244    -0.35270
C99         C  0.84859409  0.30416063  0.94315707     0.00930
C100        C  0.84813881  0.31847985  0.96460169     0.06950
C101        C  0.81260386  0.29124372  0.97388249    -0.06140
H102        H  0.87082843  0.31748887  0.93021625     0.07620
H103        H  0.80017455  0.29280757  0.98995996     0.08820
Cu104      Cu  0.79950821  0.24043020  0.90994950     0.44170
Cu105      Cu  0.74008326  0.21187718  0.96239063     0.41990
Cu106      Cu  0.71377963  0.15232963  0.91087886     0.43880
N107        N  0.77661860  0.20882522  0.88061894    -0.34800
N108        N  0.74424654  0.17532818  0.88099957    -0.29050
C109        C  0.73739833  0.15988976  0.85996562    -0.05150
C110        C  0.76666359  0.18539909  0.84563415     0.07060
C111        C  0.79135764  0.21586768  0.85930875     0.00860
H112        H  0.71411996  0.13137893  0.85574400     0.08510
H113        H  0.81904774  0.24008081  0.85448603     0.07590
N114        N  0.68384151  0.13514321  0.94135340    -0.36250
N115        N  0.69135611  0.15645616  0.95992934    -0.28430
C116        C  0.66240176  0.13694829  0.97513797    -0.03670
C117        C  0.63579995  0.10168849  0.96559359     0.04940
C118        C  0.65070766  0.10187437  0.94424082     0.03040
H119        H  0.65974802  0.14860332  0.99125812     0.08140
H120        H  0.63728709  0.08024521  0.93107648     0.06980
N121        N  0.14575653  0.43729363  0.03926001    -0.27410
N122        N  0.13034327  0.43674072  0.05936505    -0.35270
C123        C  0.10023943  0.44198626  0.05624160     0.00930
C124        C  0.09555588  0.44568407  0.03298610     0.06950
C125        C  0.12502621  0.44217529  0.02274099    -0.06140
H126        H  0.08315383  0.44325512  0.07016367     0.07620
H127        H  0.13084274  0.44228175  0.00468682     0.08820
Cu128      Cu  0.14794394  0.42705434  0.09079643     0.44170
Cu129      Cu  0.19577479  0.43372351  0.03567651     0.41990
Cu130      Cu  0.23574894  0.42909916  0.09150593     0.43880
N131        N  0.16857049  0.41496420  0.12029239    -0.34800
N132        N  0.20202496  0.41620679  0.12062285    -0.29050
C133        C  0.20716767  0.40480816  0.14140288    -0.05150
C134        C  0.17548691  0.39639785  0.15480937     0.07060
C135        C  0.15130053  0.40259289  0.14082887     0.00860
H136        H  0.23113750  0.40098359  0.14599909     0.08510
H137        H  0.12264479  0.39691200  0.14493374     0.07590
N138        N  0.26300610  0.43599671  0.06031136    -0.36250
N139        N  0.24856799  0.43579427  0.03992998    -0.28430
C140        C  0.27416640  0.43904819  0.02379113    -0.03670
C141        C  0.30605089  0.44106976  0.03459056     0.04940
C142        C  0.29797499  0.44000666  0.05773616     0.03040
H143        H  0.27002250  0.44026825  0.00555918     0.08140
H144        H  0.31652900  0.44328232  0.07195924     0.06980
N145        N  0.69349856  0.53578384  0.96245496    -0.27410
N146        N  0.68074887  0.54139114  0.94273748    -0.35270
C147        C  0.64682929  0.53950666  0.94613253     0.00930
C148        C  0.63758264  0.53310589  0.96916536     0.06950
C149        C  0.66762883  0.53024493  0.97897668    -0.06140
H150        H  0.62937642  0.54094136  0.93249136     0.07620
H151        H  0.67014595  0.52391365  0.99672814     0.08820
Cu152      Cu  0.70762959  0.55017156  0.91126950     0.44170
Cu153      Cu  0.74472320  0.53418851  0.96532532     0.41990
Cu154      Cu  0.79064664  0.54232159  0.90947664     0.43880
N155        N  0.73853093  0.55890164  0.88134381    -0.34800
N156        N  0.76954873  0.55552019  0.88059266    -0.29050
C157        C  0.78502798  0.56506256  0.85945375    -0.05150
C158        C  0.76227425  0.57444044  0.84626690     0.07060
C159        C  0.73338080  0.57081221  0.86073913     0.00860
H160        H  0.81192228  0.56709997  0.85444715     0.08510
H161        H  0.71138049  0.57802903  0.85690672     0.07590
N162        N  0.81074676  0.53405550  0.94041452    -0.36250
N163        N  0.79559307  0.53239246  0.96079867    -0.28430
C164        C  0.81752280  0.52822891  0.97681343    -0.03670
C165        C  0.84807739  0.52756812  0.96596274     0.04940
C166        C  0.84201689  0.53049616  0.94286600     0.03040
H167        H  0.81145950  0.52553508  0.99500296     0.08140
H168        H  0.85819496  0.52878715  0.92859110     0.06980
C169        C  0.95023254  0.47442560  0.99628696     0.00440
C170        C  0.98734238  0.49243004  0.00417080     0.00440
C171        C  0.46056207  0.49375930  0.00323186     0.00440
C172        C  0.48008744  0.47614125  0.99536434     0.00440
N173        N  0.14433354  0.70234986  0.04379909    -0.27410
N174        N  0.12200307  0.69649151  0.06175604    -0.35270
C175        C  0.08889434  0.66300849  0.05934588     0.00930
C176        C  0.09053416  0.64555157  0.03929636     0.06950
C177        C  0.12610271  0.67186412  0.02969620    -0.06140
H178        H  0.06551056  0.65263058  0.07150625     0.07620
H179        H  0.13822013  0.66876085  0.01384462     0.08820
Cu180      Cu  0.13866234  0.73020142  0.09076089     0.44170
Cu181      Cu  0.19826153  0.75221320  0.04007689     0.41990
Cu182      Cu  0.23432857  0.80860164  0.09309536     0.43880
N183        N  0.16312115  0.76000821  0.12054989    -0.34800
N184        N  0.19904163  0.78874326  0.12163900    -0.29050
C185        C  0.20625441  0.80281087  0.14306307    -0.05150
C186        C  0.17333441  0.78140481  0.15605003     0.07060
C187        C  0.14640428  0.75494434  0.14119517     0.00860
H188        H  0.23267158  0.82799511  0.14841936     0.08510
H189        H  0.11645157  0.73463238  0.14486319     0.07590
N190        N  0.26277985  0.82428826  0.06195145    -0.36250
N191        N  0.24979397  0.80492757  0.04264238    -0.28430
C192        C  0.27567406  0.82420188  0.02590306    -0.03670
C193        C  0.30686742  0.85674836  0.03524766     0.04940
C194        C  0.29722819  0.85582313  0.05809356     0.03040
H195        H  0.27168156  0.81509502  0.00824359     0.08140
H196        H  0.31443045  0.87617118  0.07121269     0.06980
N197        N  0.42070957  0.15939652  0.96036116    -0.27410
N198        N  0.41399348  0.14009801  0.94099226    -0.35270
C199        C  0.41693849  0.10858413  0.94457092     0.00930
C200        C  0.42620357  0.10758062  0.96724862     0.06950
C201        C  0.42803129  0.14019133  0.97685540    -0.06140
H202        H  0.41377704  0.08842871  0.93131923     0.07620
H203        H  0.43424941  0.14942765  0.99447355     0.08820
Cu204      Cu  0.40246794  0.15632275  0.90972288     0.44170
Cu205      Cu  0.42110391  0.21188763  0.96288611     0.41990
Cu206      Cu  0.39708688  0.24125205  0.90889546     0.43880
N207        N  0.39114967  0.17715378  0.88011053    -0.34800
N208        N  0.38885717  0.20888715  0.87992169    -0.29050
C209        C  0.37860068  0.21414381  0.85890367    -0.05150
C210        C  0.37486895  0.18454479  0.84516371     0.07060
C211        C  0.38248199  0.16125789  0.85916826     0.00860
H212        H  0.37247616  0.23670669  0.85429232     0.08510
H213        H  0.37981785  0.13379609  0.85483982     0.07590
N214        N  0.40923518  0.27229577  0.93880179    -0.36250
N215        N  0.41884643  0.26279962  0.95842865    -0.28430
C216        C  0.42769876  0.29145347  0.97351584    -0.03670
C217        C  0.42294855  0.32001033  0.96287405     0.04940
C218        C  0.41141748  0.30668190  0.94086831     0.03040
H219        H  0.43860125  0.29223512  0.99055949     0.08140
H220        H  0.40606658  0.32144668  0.92702846     0.06980
N221        N  0.51421854  0.80982068  0.04165188    -0.27410
N222        N  0.53223563  0.83285758  0.05906051    -0.35270
C223        C  0.53321362  0.86654301  0.05605917     0.00930
C224        C  0.51382693  0.86478007  0.03616240     0.06950
C225        C  0.50273019  0.82853594  0.02719462    -0.06140
H226        H  0.54639028  0.89022098  0.06797843     0.07620
H227        H  0.48626680  0.81618523  0.01176108     0.08820
Cu228      Cu  0.54949299  0.81732298  0.08853389     0.44170
Cu229      Cu  0.50614624  0.75382359  0.03931644     0.41990
Cu230      Cu  0.53866282  0.72535267  0.09109013     0.43880
N231        N  0.55559297  0.79413115  0.11878861    -0.34800
N232        N  0.55067412  0.75903317  0.11996310    -0.29050
C233        C  0.55706790  0.75188245  0.14158752    -0.05150
C234        C  0.56601718  0.78403541  0.15460617     0.07060
C235        C  0.56544150  0.81048908  0.13954907     0.00860
H236        H  0.55741291  0.72621832  0.14708580     0.08510
H237        H  0.57324475  0.83998609  0.14317952     0.07590
N238        N  0.52399928  0.69526028  0.06064717    -0.36250
N239        N  0.50995486  0.70346472  0.04236764    -0.28430
C240        C  0.50029923  0.67519049  0.02687886    -0.03670
C241        C  0.50968487  0.64838447  0.03557742     0.04940
C242        C  0.52456171  0.66250623  0.05708821     0.03040
H243        H  0.48607496  0.67380875  0.01093972     0.08140
H244        H  0.53450704  0.64963337  0.06968083     0.06980
C245        C  0.47667928  0.00040761  0.99201312     0.00440
C246        C  0.46000686  0.96494944  0.00251683     0.00440
N247        N  0.34716477  0.17097214  0.71434552    -0.27410
N248        N  0.31391158  0.15255468  0.70342446    -0.35270
C249        C  0.32040524  0.15541317  0.68075860     0.00930
C250        C  0.35954418  0.17679490  0.67721385     0.06950
C251        C  0.37585070  0.18637334  0.69874590    -0.06140
H252        H  0.29820226  0.14302933  0.66783603     0.07620
H253        H  0.40617056  0.20293107  0.70278207     0.08820
Cu254      Cu  0.26076077  0.12501440  0.71902428     0.44170
Cu255      Cu  0.35166702  0.17344265  0.74992665     0.41990
Cu256      Cu  0.25995646  0.13108939  0.77981774     0.43880
N257        N  0.21098354  0.10247959  0.73802696    -0.34800
N258        N  0.21076789  0.10568461  0.76052088    -0.29050
C259        C  0.17424342  0.08901205  0.76797525    -0.05150
C260        C  0.15067241  0.07457298  0.74918469     0.07060
C261        C  0.17456564  0.08336577  0.73045956     0.00860
H262        H  0.16559701  0.08710888  0.78571860     0.08510
H263        H  0.16622064  0.07662055  0.71271229     0.07590
N264        N  0.31219371  0.15472885  0.79602347    -0.36250
N265        N  0.34590636  0.16998814  0.78546638    -0.28430
C266        C  0.37384967  0.18249623  0.80138603    -0.03670
C267        C  0.35650553  0.17453300  0.82273885     0.04940
C268        C  0.31759162  0.15714001  0.81875417     0.03040
H269        H  0.40435384  0.19677081  0.79769421     0.08140
H270        H  0.29483288  0.14721742  0.83141451     0.06980
N271        N  0.78634534  0.17719881  0.71492262    -0.27410
N272        N  0.80000887  0.15766187  0.70408556    -0.35270
C273        C  0.79633069  0.16034145  0.68142556     0.00930
C274        C  0.78002304  0.18298742  0.67778022     0.06950
C275        C  0.77389429  0.19324954  0.69926005    -0.06140
H276        H  0.80468002  0.14654870  0.66857792     0.07620
H277        H  0.76045067  0.21011075  0.70323172     0.08820
Cu278      Cu  0.82335400  0.12807015  0.71969477     0.44170
Cu279      Cu  0.78349474  0.17915637  0.75045814     0.41990
Cu280      Cu  0.82607468  0.12998836  0.78042440     0.43880
N281        N  0.84855941  0.10347788  0.73866162    -0.34800
N282        N  0.85024921  0.10492780  0.76124519    -0.29050
C283        C  0.86922415  0.08740499  0.76874749    -0.05150
C284        C  0.87963349  0.07429247  0.74987046     0.07060
C285        C  0.86620460  0.08475154  0.73105342     0.00860
H286        H  0.87472279  0.08425462  0.78655186     0.08510
H287        H  0.86923209  0.07946256  0.71322556     0.07590
N288        N  0.79915833  0.15542269  0.79647603    -0.36250
N289        N  0.78377779  0.17376483  0.78593699    -0.28430
C290        C  0.76927571  0.18724781  0.80184824    -0.03670
C291        C  0.77588123  0.17650000  0.82315512     0.04940
C292        C  0.79481703  0.15649755  0.81917309     0.03040
H293        H  0.75520232  0.20366793  0.79818325     0.08140
H294        H  0.80510609  0.14398789  0.83182606     0.06980
N295        N  0.91358614  0.90432706  0.74895185    -0.27410
N296        N  0.94649602  0.90434163  0.74932183    -0.35270
C297        C  0.93915348  0.86776298  0.75002680     0.00930
C298        C  0.89980442  0.84395609  0.75005621     0.06950
C299        C  0.88429042  0.86773970  0.74932501    -0.06140
H300        H  0.96080228  0.85925541  0.75037695     0.07620
H301        H  0.85411385  0.85921170  0.74912594     0.08820
Cu302      Cu  0.99957076  0.95364352  0.74878986     0.44170
Cu303      Cu  0.90984915  0.95359617  0.74834817     0.41990
Cu304      Cu  0.99972914  0.04358198  0.75216419     0.43880
N305        N  0.04872134  0.00687202  0.74903924    -0.34800
N306        N  0.04878717  0.03978344  0.75084881    -0.29050
C307        C  0.08528740  0.06911188  0.75113796    -0.05150
C308        C  0.10895725  0.05364238  0.74921585     0.07060
C309        C  0.08517641  0.01427267  0.74791234     0.00860
H310        H  0.09383096  0.09929762  0.75250014     0.08510
H311        H  0.09362682  0.99261776  0.74654832     0.07590
N312        N  0.94681211  0.03968176  0.75105318    -0.36250
N313        N  0.91393303  0.00675809  0.74920282    -0.28430
C314        C  0.88482802  0.01408543  0.74836769    -0.03670
C315        C  0.90042657  0.05342101  0.74985318     0.04940
C316        C  0.93962264  0.06895711  0.75158213     0.03040
H317        H  0.85470486  0.99241629  0.74697244     0.08140
H318        H  0.96128593  0.09914492  0.75297185     0.06980
N319        N  0.77922012  0.60519721  0.78649917    -0.27410
N320        N  0.79596031  0.63878464  0.79717863    -0.35270
C321        C  0.79214071  0.63272009  0.81990552     0.00930
C322        C  0.77219342  0.59350255  0.82381331     0.06950
C323        C  0.76439730  0.57671047  0.80237805    -0.06140
H324        H  0.80331595  0.65528247  0.83263473     0.07620
H325        H  0.74907942  0.54619069  0.79860784     0.08820
Cu326      Cu  0.82376292  0.69193597  0.78128566     0.44170
Cu327      Cu  0.77714714  0.60007069  0.75078254     0.41990
Cu328      Cu  0.82064913  0.69206107  0.72052868     0.43880
N329        N  0.84868618  0.74174311  0.76198339    -0.34800
N330        N  0.84711189  0.74172105  0.73939095    -0.29050
C331        C  0.86525287  0.77827343  0.73162740    -0.05150
C332        C  0.87883712  0.80211601  0.75033783     0.07060
C333        C  0.86800014  0.77834738  0.76933407     0.00860
H334        H  0.86827169  0.78674549  0.71376413     0.08510
H335        H  0.87343039  0.78690800  0.78711003     0.07590
N336        N  0.79465548  0.63956206  0.70447905    -0.36250
N337        N  0.77918014  0.60567176  0.71504741    -0.28430
C338        C  0.76572736  0.57773315  0.69906032    -0.03670
C339        C  0.77309153  0.59529403  0.67768232     0.04940
C340        C  0.79135773  0.63431072  0.68174914     0.03040
H341        H  0.75157559  0.54711105  0.70271291     0.08140
H342        H  0.80181187  0.65730316  0.66912136     0.06980
N343        N  0.14889592  0.70287633  0.45940193    -0.27410
N344        N  0.13294600  0.68912273  0.43927424    -0.35270
C345        C  0.10021472  0.65538486  0.44237071     0.00930
C346        C  0.09422535  0.64749293  0.46561923     0.06950
C347        C  0.12617257  0.67808344  0.47588293    -0.06140
H348        H  0.08270820  0.63754899  0.42846035     0.07620
H349        H  0.13248347  0.68204323  0.49400823     0.08820
Cu350      Cu  0.15302933  0.71698809  0.40804898     0.44170
Cu351      Cu  0.20076585  0.75500296  0.46312900     0.41990
Cu352      Cu  0.21747440  0.81735816  0.41413160     0.43880
N353        N  0.16954301  0.75502522  0.38059979    -0.34800
N354        N  0.19144806  0.79266588  0.38340424    -0.29050
C355        C  0.19373736  0.81071888  0.36351556    -0.05150
C356        C  0.17281611  0.78305983  0.34731233     0.07060
C357        C  0.15763133  0.74799135  0.35867889     0.00860
H358        H  0.20874497  0.84172142  0.36116395     0.08510
H359        H  0.13740786  0.71983183  0.35198179     0.07590
N360        N  0.25243559  0.83383986  0.44268229    -0.36250
N361        N  0.24871831  0.81049724  0.45980619    -0.28430
C362        C  0.28008346  0.82865000  0.47324877    -0.03670
C363        C  0.30479387  0.86523308  0.46409749     0.04940
C364        C  0.28543154  0.86749460  0.44502797     0.03040
H365        H  0.28501034  0.81570589  0.48822985     0.08140
H366        H  0.29428265  0.89152121  0.43339220     0.06980
N367        N  0.79363646  0.26235402  0.54058250    -0.27410
N368        N  0.81015379  0.27661788  0.56052877    -0.35270
C369        C  0.84221478  0.31076966  0.55715740     0.00930
C370        C  0.84730027  0.31860660  0.53391935     0.06950
C371        C  0.81543068  0.28746222  0.52391530    -0.06140
H372        H  0.85975223  0.32907965  0.57091606     0.07620
H373        H  0.80845205  0.28349817  0.50587155     0.08820
Cu374      Cu  0.79144691  0.25050188  0.59220480     0.44170
Cu375      Cu  0.74162165  0.20965394  0.53753093     0.41990
Cu376      Cu  0.71312200  0.15621618  0.59164183     0.43880
N377        N  0.77305340  0.21664271  0.62142515    -0.34800
N378        N  0.74424143  0.18069081  0.62088185    -0.29050
C379        C  0.74091982  0.16395227  0.64139431    -0.05150
C380        C  0.76862953  0.19098897  0.65562402     0.07060
C381        C  0.78885715  0.22401097  0.64242863     0.00860
H382        H  0.72097467  0.13392057  0.64533092     0.08510
H383        H  0.81455984  0.25041615  0.64723197     0.07590
N384        N  0.68167351  0.13721645  0.56195091    -0.36250
N385        N  0.69087070  0.15611251  0.54217839    -0.28430
C386        C  0.66199084  0.13596059  0.52725920    -0.03670
C387        C  0.63362462  0.10281248  0.53824940     0.04940
C388        C  0.64723843  0.10497389  0.56021081     0.03040
H389        H  0.66093165  0.14563989  0.51007650     0.08140
H390        H  0.63266681  0.08504294  0.57421742     0.06980
N391        N  0.41990029  0.15882277  0.53941006    -0.27410
N392        N  0.41355326  0.13957010  0.55891838    -0.35270
C393        C  0.41588701  0.10775786  0.55533464     0.00930
C394        C  0.42349487  0.10620409  0.53237234     0.06950
C395        C  0.42649632  0.13949066  0.52282888    -0.06140
H396        H  0.41369902  0.08801597  0.56875790     0.07620
H397        H  0.43339179  0.14914492  0.50521557     0.08820
Cu398      Cu  0.40338785  0.15702946  0.59013182     0.44170
Cu399      Cu  0.42027170  0.21106797  0.53708910     0.41990
Cu400      Cu  0.41069705  0.24892657  0.59243260     0.43880
N401        N  0.39467678  0.17924634  0.61994129    -0.34800
N402        N  0.39830488  0.21385363  0.62093868    -0.29050
C403        C  0.38879236  0.21934822  0.64210100    -0.05150
C404        C  0.37902652  0.18666368  0.65500457     0.07060
C405        C  0.38250376  0.16159319  0.64039624     0.00860
H406        H  0.38675217  0.24416868  0.64723929     0.08510
H407        H  0.37497968  0.13209723  0.64402104     0.07590
N408        N  0.41704683  0.27619051  0.56127030    -0.36250
N409        N  0.41966157  0.26253254  0.54120000    -0.28430
C410        C  0.42355649  0.28802067  0.52478118    -0.03670
C411        C  0.42311556  0.31905745  0.53498492     0.04940
C412        C  0.41947400  0.31059054  0.55817793     0.03040
H413        H  0.42747498  0.28467021  0.50677202     0.08140
H414        H  0.42047989  0.32884128  0.57204045     0.06980
N415        N  0.51991583  0.70744314  0.46043073    -0.27410
N416        N  0.53311814  0.70015986  0.44149379    -0.35270
C417        C  0.53051959  0.66557410  0.44336395     0.00930
C418        C  0.51396356  0.64938482  0.46425065     0.06950
C419        C  0.50812882  0.67701784  0.47487371    -0.06140
H420        H  0.53865746  0.65249981  0.42996219     0.07620
H421        H  0.49448710  0.67431190  0.49130660     0.08820
Cu422      Cu  0.54781030  0.73292612  0.41192256     0.44170
Cu423      Cu  0.51599081  0.75738813  0.46385953     0.41990
Cu424      Cu  0.52272120  0.80532303  0.40807076     0.43880
N425        N  0.55207351  0.76173047  0.38172278    -0.34800
N426        N  0.54133781  0.78783308  0.37978459    -0.29050
C427        C  0.54811144  0.80170473  0.35814349    -0.05150
C428        C  0.56371807  0.78315076  0.34605486     0.07060
C429        C  0.56625106  0.75841239  0.36158396     0.00860
H430        H  0.54424797  0.82511686  0.35209657     0.08510
H431        H  0.57867283  0.74028260  0.35867605     0.07590
N432        N  0.51226699  0.82259946  0.43947543    -0.36250
N433        N  0.51196557  0.80724398  0.45964339    -0.28430
C434        C  0.50761612  0.82825353  0.47611023    -0.03670
C435        C  0.50397474  0.85782985  0.46586810     0.04940
C436        C  0.50725211  0.85294644  0.44257502     0.03040
H437        H  0.50820921  0.82259111  0.49413808     0.08140
H438        H  0.50607372  0.87016212  0.42860775     0.06980
C439        C  0.45990482  0.96726970  0.49680245     0.00440
C440        C  0.47806614  0.00393599  0.50562307     0.00440
N441        N  0.24918479  0.44086655  0.45968612    -0.27410
N442        N  0.26298966  0.43712873  0.43991262    -0.35270
C443        C  0.29731284  0.43993073  0.44342717     0.00930
C444        C  0.30608186  0.44561001  0.46657130     0.06950
C445        C  0.27441090  0.44557666  0.47637316    -0.06140
H446        H  0.31492085  0.43849075  0.42988284     0.07620
H447        H  0.26939755  0.44807187  0.49428814     0.08820
Cu448      Cu  0.23513637  0.42681713  0.40862040     0.44170
Cu449      Cu  0.19703765  0.44053778  0.46263691     0.41990
Cu450      Cu  0.13944260  0.40948995  0.41062866     0.43880
N451        N  0.20015798  0.41122282  0.37992476    -0.34800
N452        N  0.16418679  0.40371579  0.38096117    -0.29050
C453        C  0.14752293  0.39116385  0.36043748    -0.05150
C454        C  0.17453377  0.39144783  0.34566530     0.07060
C455        C  0.20749013  0.40388420  0.35859870     0.00860
H456        H  0.11758101  0.38118882  0.35678861     0.08510
H457        H  0.23398681  0.40530584  0.35330917     0.07590
N458        N  0.12203880  0.42354729  0.44060536    -0.36250
N459        N  0.14333437  0.43676477  0.45921738    -0.28430
C460        C  0.12481905  0.44718418  0.47430184    -0.03670
C461        C  0.08967649  0.43927650  0.46495110     0.04940
C462        C  0.08936015  0.42447369  0.44349328     0.03040
H463        H  0.13715895  0.46123875  0.49034787     0.08140
H464        H  0.06743506  0.41592800  0.43049434     0.06980
N465        N  0.79341194  0.52718968  0.54203187    -0.27410
N466        N  0.81419241  0.53936467  0.56092054    -0.35270
C467        C  0.84722992  0.53922377  0.55794304     0.00930
C468        C  0.84780814  0.52600142  0.53617008     0.06950
C469        C  0.81279180  0.51825596  0.52665509    -0.06140
H470        H  0.86890453  0.54739562  0.57107026     0.07620
H471        H  0.80127112  0.50550940  0.51019641     0.08820
Cu472      Cu  0.79708252  0.55240772  0.59131941     0.44170
Cu473      Cu  0.73974738  0.52393882  0.53824013     0.41990
Cu474      Cu  0.71349163  0.55876151  0.58919518     0.43880
N475        N  0.77425888  0.56270685  0.62031325    -0.34800
N476        N  0.74306903  0.56575242  0.61942522    -0.29050
C477        C  0.73625790  0.57514659  0.64028423    -0.05150
C478        C  0.76417265  0.57736025  0.65507277     0.07060
C479        C  0.78814747  0.56986675  0.64179087     0.00860
H480        H  0.71382291  0.58170678  0.64413234     0.08510
H481        H  0.81489445  0.57178343  0.64699877     0.07590
N482        N  0.68307797  0.54433581  0.55880666    -0.36250
N483        N  0.69074708  0.53000927  0.54049627    -0.28430
C484        C  0.66185825  0.51975636  0.52528380    -0.03670
C485        C  0.63483426  0.52780162  0.53467971     0.04940
C486        C  0.64980843  0.54395406  0.55570773     0.03040
H487        H  0.65969641  0.50574483  0.50911439     0.08140
H488        H  0.63662431  0.55325727  0.56840312     0.06980
C489        C  0.98828193  0.49360788  0.49661994     0.00440
C490        C  0.95069414  0.47415788  0.50385820     0.00440
C491        C  0.48041084  0.47380878  0.50085958     0.00440
C492        C  0.46125475  0.49222432  0.49361089     0.00440
C493        C  0.91109164  0.50566036  0.49616441    -0.09280
C494        C  0.93043883  0.49475590  0.51188519     0.06920
C495        C  0.92527036  0.49817016  0.53543316    -0.03040
C496        C  0.89882020  0.50886144  0.54276748    -0.07490
C497        C  0.87753202  0.51749934  0.52707162     0.06030
C498        C  0.88537473  0.51749851  0.50345367    -0.02520
Br499      Br  0.86380433  0.53483701  0.48012582    -0.02210
H500        H  0.91478767  0.50375469  0.47799854     0.09950
H501        H  0.89431263  0.50933258  0.56100772     0.07960
Br502      Br  0.95343695  0.48857263  0.55852840    -0.02640
C503        C  0.59082923  0.52496517  0.50323036    -0.09280
C504        C  0.59587142  0.51675181  0.52602266     0.06920
C505        C  0.56324496  0.49782939  0.54040247    -0.03040
C506        C  0.52695869  0.48767101  0.53199286    -0.07490
C507        C  0.52130972  0.49452666  0.50907144     0.06030
C508        C  0.55397653  0.51411479  0.49465190    -0.02520
Br509      Br  0.55016915  0.52408686  0.46286995    -0.02210
H510        H  0.61559476  0.53942206  0.49197279     0.09950
H511        H  0.50237144  0.47230550  0.54329857     0.07960
Br512      Br  0.56482962  0.48023764  0.57089203    -0.02640
C513        C  0.03864810  0.45641964  0.45817557    -0.09280
C514        C  0.06067308  0.44889849  0.47393970     0.06920
C515        C  0.05422547  0.45100672  0.49757521    -0.03040
C516        C  0.02903545  0.46357510  0.50469467    -0.07490
C517        C  0.00867279  0.47299872  0.48886448     0.06030
C518        C  0.01262388  0.46777157  0.46540371    -0.02520
Br519      Br  0.98324440  0.47563063  0.44232741    -0.02210
H520        H  0.04214880  0.45441649  0.43995065     0.09950
H521        H  0.02620486  0.46679151  0.52281312     0.07960
Br522      Br  0.07678478  0.43543517  0.52128127    -0.02640
C523        C  0.39743484  0.48451207  0.50280725    -0.09280
C524        C  0.41853815  0.47158011  0.49022075     0.06920
C525        C  0.40044954  0.44642035  0.47176494    -0.03040
C526        C  0.36268557  0.43592445  0.46584082    -0.07490
C527        C  0.34256696  0.45148649  0.47714406     0.06030
C528        C  0.36021481  0.47539107  0.49634202    -0.02520
Br529      Br  0.33864581  0.50142601  0.51280959    -0.02210
H530        H  0.41130270  0.50450825  0.51675125     0.09950
H531        H  0.34989270  0.41715131  0.45128430     0.07960
Br532      Br  0.42733716  0.43010683  0.45178005    -0.02640
C533        C  0.50700845  0.92145831  0.46271853    -0.09280
C534        C  0.49830756  0.88883480  0.47629192     0.06920
C535        C  0.48223580  0.88627879  0.49833004    -0.03040
C536        C  0.47529843  0.91548255  0.50584024    -0.07490
C537        C  0.48047325  0.94577663  0.49131003     0.06030
C538        C  0.49684298  0.94858872  0.46945378    -0.02520
Br539      Br  0.50333303  0.98646265  0.44677367    -0.02210
H540        H  0.52009547  0.92520063  0.44601482     0.09950
H541        H  0.46305194  0.91278513  0.52265578     0.07960
Br542      Br  0.46321587  0.84193638  0.51811176    -0.02640
C543        C  0.47466105  0.54135095  0.46398495    -0.09280
C544        C  0.48061250  0.53376965  0.48666549     0.06920
C545        C  0.49669650  0.56465973  0.50232287    -0.03040
C546        C  0.50779092  0.60228480  0.49477583    -0.07490
C547        C  0.50168239  0.60950032  0.47199863     0.06030
C548        C  0.48380385  0.57817374  0.45676362    -0.02520
Br549      Br  0.46554498  0.58194620  0.42694872    -0.02210
H550        H  0.46053717  0.51778874  0.45200257     0.09950
H551        H  0.52051840  0.62586219  0.50684728     0.07960
Br552      Br  0.50058695  0.55686847  0.53439861    -0.02640
C553        C  0.45845848  0.37015288  0.50581253    -0.09280
C554        C  0.43205799  0.35620780  0.52403216     0.06920
C555        C  0.41715678  0.37931073  0.53217302    -0.03040
C556        C  0.43113280  0.41660450  0.52330110    -0.07490
C557        C  0.45941539  0.43140357  0.50603944     0.06030
C558        C  0.47222963  0.40721023  0.49689259    -0.02520
Br559      Br  0.50946561  0.42309925  0.47264584    -0.02210
H560        H  0.47003952  0.35290497  0.49911911     0.09950
H561        H  0.42123292  0.43480337  0.53073442     0.07960
Br562      Br  0.37727484  0.36179171  0.55494563    -0.02640
C563        C  0.46252787  0.09033550  0.50607204    -0.09280
C564        C  0.43176071  0.07766386  0.52158572     0.06920
C565        C  0.41154169  0.03831763  0.52798984    -0.03040
C566        C  0.42511110  0.01387006  0.52121610    -0.07490
C567        C  0.45831110  0.02732114  0.50761136     0.06030
C568        C  0.47558860  0.06551798  0.49890235    -0.02520
Br569      Br  0.51700539  0.08559099  0.47709026    -0.02210
H570        H  0.47762881  0.12010497  0.50027079     0.09950
H571        H  0.41095217  0.98503613  0.52803313     0.07960
Br572      Br  0.36491631  0.01582751  0.54577634    -0.02640
C573        C  0.93921140  0.41479100  0.52504223    -0.09280
C574        C  0.92868067  0.43118985  0.50720346     0.06920
C575        C  0.89379437  0.40736509  0.49560026    -0.03040
C576        C  0.86841547  0.36993132  0.50373608    -0.07490
C577        C  0.87759073  0.35497786  0.52299100     0.06030
C578        C  0.91474670  0.37692529  0.53254055    -0.02520
Br579      Br  0.93491198  0.35704722  0.55530514    -0.02210
H580        H  0.96569911  0.43202261  0.53419296     0.09950
H581        H  0.84077491  0.35312096  0.49547337     0.07960
Br582      Br  0.87923886  0.42377368  0.46840382    -0.02640
C583        C  0.56328510  0.06090471  0.54517765    -0.09280
C584        C  0.59464303  0.07394537  0.53003559     0.06920
C585        C  0.58784566  0.05875295  0.50774042    -0.03040
C586        C  0.55008419  0.03356888  0.50051543    -0.07490
C587        C  0.51830199  0.02275507  0.51507234     0.06030
C588        C  0.52563486  0.03549725  0.53800812    -0.02520
Br589      Br  0.48566163  0.01895169  0.56064664    -0.02210
H590        H  0.56786777  0.07126557  0.56262654     0.09950
H591        H  0.54587071  0.02449848  0.48308376     0.07960
Br592      Br  0.62879668  0.07021659  0.48654551    -0.02640
C593        C  0.35234754  0.89371702  0.49594225    -0.09280
C594        C  0.34373389  0.89456003  0.47266024     0.06920
C595        C  0.37308073  0.92261852  0.45827387    -0.03040
C596        C  0.40891298  0.94909432  0.46742674    -0.07490
C597        C  0.41828464  0.94643137  0.49018157     0.06030
C598        C  0.38923483  0.91844549  0.50462260    -0.02520
Br599      Br  0.39761609  0.91198271  0.53635545    -0.02210
H600        H  0.33056130  0.87296676  0.50746859     0.09950
H601        H  0.43043285  0.97042257  0.45615733     0.07960
Br602      Br  0.37007460  0.92357465  0.42545697    -0.02640
C603        C  0.00086967  0.55246953  0.47450735    -0.09280
C604        C  0.01030870  0.53649050  0.49309334     0.06920
C605        C  0.04466869  0.56044977  0.50510473    -0.03040
C606        C  0.07087408  0.59733624  0.49659966    -0.07490
C607        C  0.06298303  0.61172232  0.47658285     0.06030
C608        C  0.02611913  0.58993637  0.46663909    -0.02520
Br609      Br  0.00730621  0.60958220  0.44293563    -0.02210
H610        H  0.97463903  0.53517255  0.46512670     0.09950
H611        H  0.09814948  0.61412195  0.50524736     0.07960
Br612      Br  0.05735114  0.54499269  0.53335852    -0.02640
C613        C  0.48430096  0.94143616  0.03368074    -0.09280
C614        C  0.48246666  0.94640253  0.01003698     0.06920
C615        C  0.49303431  0.92587553  0.99497008    -0.03040
C616        C  0.50420230  0.90026174  0.00378190    -0.07490
C617        C  0.50438183  0.89405752  0.02751946     0.06030
C618        C  0.49416753  0.91513302  0.04251967    -0.02520
Br619      Br  0.48664298  0.90555845  0.07494674    -0.02210
H620        H  0.47489556  0.95594747  0.04540116     0.09950
H621        H  0.51168376  0.88426154  0.99199494     0.07960
Br622      Br  0.48915720  0.92882233  0.96239896    -0.02640
C623        C  0.41375234  0.04023281  0.96953097    -0.09280
C624        C  0.43459021  0.07848936  0.97744558     0.06920
C625        C  0.46571164  0.08859578  0.99242086    -0.03040
C626        C  0.47605045  0.06117259  0.99833211    -0.07490
C627        C  0.45707853  0.02368990  0.98911859     0.06030
C628        C  0.42483262  0.01303641  0.97490297    -0.02520
Br629      Br  0.39768659  0.96436776  0.95952636    -0.02210
H630        H  0.38979122  0.03192979  0.95797836     0.09950
H631        H  0.50089493  0.07003167  0.00922754     0.07960
Br632      Br  0.49918877  0.14029982  0.00284868    -0.02640
C633        C  0.36318496  0.92367490  0.03312267    -0.09280
C634        C  0.34371214  0.88588439  0.02430338     0.06920
C635        C  0.36189254  0.87626517  0.00695094    -0.03040
C636        C  0.39815434  0.90404186  0.99888966    -0.07490
C637        C  0.41819443  0.94127569  0.00824331     0.06030
C638        C  0.40041700  0.95089690  0.02576102    -0.02520
Br639      Br  0.42704128  0.99820604  0.04250187    -0.02210
H640        H  0.35018258  0.93162715  0.04670014     0.09950
H641        H  0.41194463  0.89567634  0.98603244     0.07960
Br642      Br  0.34269093  0.82482957  0.99573853    -0.02640
C643        C  0.49906847  0.58174918  0.04135540    -0.09280
C644        C  0.50181162  0.61043436  0.02604290     0.06920
C645        C  0.49681738  0.60154625  0.00240614    -0.03040
C646        C  0.48532676  0.56397495  0.99516730    -0.07490
C647        C  0.48056480  0.53498662  0.01071464     0.06030
C648        C  0.48945379  0.54487817  0.03387173    -0.02520
Br649      Br  0.48938022  0.50947884  0.05614332    -0.02210
H650        H  0.50362717  0.58739730  0.05950011     0.09950
H651        H  0.48004390  0.55747886  0.97714907     0.07960
Br652      Br  0.50745484  0.63900453  0.97867707    -0.02640
C653        C  0.45003443  0.39038681  0.95595451    -0.09280
C654        C  0.43346122  0.35903276  0.97136641     0.06920
C655        C  0.42774204  0.36602420  0.99427073    -0.03040
C656        C  0.44136463  0.40393577  0.00164246    -0.07490
C657        C  0.45958860  0.43556188  0.98647140     0.06030
C658        C  0.46262471  0.42809222  0.96318650    -0.02520
Br659      Br  0.48365149  0.46799093  0.94022136    -0.02210
H660        H  0.45414281  0.38580785  0.93815655     0.09950
H661        H  0.43944541  0.40851518  0.01963134     0.07960
Br662      Br  0.40004817  0.32522710  0.01611322    -0.02640
C663        C  0.00752725  0.54129206  0.03472621    -0.09280
C664        C  0.00824922  0.53381289  0.01139856     0.06920
C665        C  0.03518857  0.56412012  0.99713901    -0.02840
C666        C  0.06027336  0.60046526  0.00646590    -0.07490
C667        C  0.06116385  0.60712273  0.03014223     0.06030
C668        C  0.03468670  0.57637204  0.04437751    -0.02520
Br669      Br  0.03742822  0.57631173  0.07724059    -0.02210
H670        H  0.98754679  0.51862387  0.04598690     0.09950
H671        H  0.08018233  0.62328242  0.99511888     0.07960
Br672      Br  0.04143102  0.55812478  0.96512019    -0.02640
C673        C  0.86970862  0.49840794  0.99642308    -0.09280
C674        C  0.87808929  0.52066008  0.97626790     0.06920
C675        C  0.91440279  0.53399182  0.96576462    -0.03040
C676        C  0.93858374  0.52065160  0.97352111    -0.07490
C677        C  0.92873700  0.49558752  0.99235813     0.06030
C678        C  0.89492609  0.48647914  0.00469221    -0.02520
Br679      Br  0.88214305  0.45900471  0.03326125    -0.02210
H680        H  0.84291073  0.48915939  0.00546968     0.09950
H681        H  0.96445281  0.52874692  0.96402007     0.07960
Br682      Br  0.93424009  0.57171629  0.94147048    -0.02640
C683        C  0.58312735  0.49569190  0.99636943    -0.09280
C684        C  0.60054660  0.52494732  0.97972641     0.06920
C685        C  0.58037817  0.54328593  0.97195157    -0.03040
C686        C  0.54200540  0.52884829  0.97843998    -0.07490
C687        C  0.52318729  0.49706104  0.99336670     0.06030
C688        C  0.54504521  0.48205358  0.00340839    -0.02520
Br689      Br  0.52478032  0.44295262  0.02682501    -0.02210
H690        H  0.59849721  0.48208693  0.00320649     0.09950
H691        H  0.52625005  0.54097666  0.97041637     0.07960
Br692      Br  0.60350776  0.58855529  0.95275502    -0.02640
C693        C  0.35519230  0.46661780  0.00293640    -0.09280
C694        C  0.34270403  0.44736946  0.02416961     0.06920
C695        C  0.36697436  0.43668969  0.03568844    -0.03040
C696        C  0.40454661  0.45055872  0.02794255    -0.07490
C697        C  0.41811038  0.47213087  0.00764236     0.06030
C698        C  0.39218028  0.47818810  0.99441811    -0.02520
Br699      Br  0.40540728  0.50153871  0.96458958    -0.02210
H700        H  0.33668332  0.47376925  0.99317627     0.09950
H701        H  0.42353501  0.44522092  0.03840137     0.07960
Br702      Br  0.35077300  0.40136958  0.06121160    -0.02640
C703        C  0.03972394  0.47864926  0.99446846    -0.09280
C704        C  0.00865387  0.47131418  0.00881261     0.06920
C705        C  0.00470656  0.45180851  0.02977340    -0.03040
C706        C  0.03151074  0.44087140  0.03587444    -0.07490
C707        C  0.06480437  0.45173055  0.02269411     0.06030
C708        C  0.06845847  0.47066963  0.00148322    -0.02520
Br709      Br  0.11373074  0.49201069  0.98257314    -0.02210
H710        H  0.04338236  0.49336594  0.97833701     0.09950
H711        H  0.02716417  0.42563707  0.05195661     0.07960
Br712      Br  0.96687368  0.44308415  0.05266655    -0.02640
C713        C  0.90064257  0.38660035  0.95788778    -0.09280
C714        C  0.87752056  0.35702108  0.97359556     0.06920
C715        C  0.88319596  0.36553104  0.99720022    -0.03040
C716        C  0.90833060  0.40337323  0.00429166    -0.07490
C717        C  0.92985776  0.43326634  0.98857755     0.06030
C718        C  0.92691780  0.42400960  0.96515923    -0.02520
Br719      Br  0.95795224  0.46109434  0.94218461    -0.02210
H720        H  0.89785948  0.38114207  0.93966698     0.09950
H721        H  0.90987574  0.40930810  0.02227436     0.07960
Br722      Br  0.85972141  0.32723939  0.02095561    -0.02640
C723        C  0.56700945  0.05898305  0.95654231    -0.09280
C724        C  0.59597616  0.07362443  0.97321711     0.06920
C725        C  0.58592709  0.06078616  0.99609863    -0.03040
C726        C  0.54725147  0.03494885  0.00189802    -0.07490
C727        C  0.51822757  0.02132419  0.98514502     0.06030
C728        C  0.52876503  0.03331748  0.96221940    -0.02520
Br729      Br  0.49245939  0.01636825  0.93757144    -0.02210
H730        H  0.57387355  0.06834929  0.93886228     0.09950
H731        H  0.53962420  0.02657080  0.01965561     0.07960
Br732      Br  0.62365862  0.07645873  0.01987165    -0.02640
loop_ 
_geom_bond_atom_site_label_1 
_geom_bond_atom_site_label_2 
_geom_bond_distance 
_geom_bond_site_symmetry_2 
_ccdc_geom_bond_type 
N1            N2   1.323       .  A
N1            C5   1.349       .  A
N1           Cu9   2.093       .  S
N2            C3   1.340       .  A
N2           Cu8   2.050       .  S
C3            C4   1.374       .  A
C3            H6   1.082       .  S
C4            C5   1.385       .  A
C4          C234   1.462       .  S
C5            H7   1.081       .  S
Cu8          N11   2.048       .  S
Cu9          N19   2.094       .  S
Cu10         N12   2.053       .  S
Cu10         N18   2.055       .  S
N11          N12   1.320       .  A
N11          C15   1.341       .  A
N12          C13   1.342       .  A
C13          C14   1.377       .  A
C13          H16   1.082       .  S
C14          C15   1.376       .  A
C14          C76   1.449       .  S
C15          H17   1.082       .  S
N18          N19   1.324       .  A
N18          C22   1.341       .  A
N19          C20   1.350       .  A
C20          C21   1.385       .  A
C20          H23   1.081       .  S
C21          C22   1.375       .  A
C21         C428   1.464       .  S
C22          H24   1.082       .  S
N25          N26   1.324       .  A
N25          C29   1.348       .  A
N25         Cu33   2.093       .  S
N26          C27   1.343       .  A
N26         Cu32   2.057       .  S
C27          C28   1.376       .  A
C27          H30   1.082       .  S
C28          C29   1.384       .  A
C28         C134   1.464       .  S
C29          H31   1.081       .  S
Cu32         N35   2.055       .  S
Cu33         N43   2.093       .  S
Cu34         N36   2.054       .  S
Cu34         N42   2.056       .  S
N35          N36   1.321       .  A
N35          C39   1.342       .  A
N36          C37   1.342       .  A
C37          C38   1.376       .  A
C37          H40   1.082       .  S
C38          C39   1.376       .  A
C38          C86   1.450       .  S
C39          H41   1.082       .  S
N42          N43   1.323       .  A
N42          C46   1.342       .  A
N43          C44   1.349       .  A
C44          C45   1.385       .  A
C44          H47   1.081       .  S
C45          C46   1.376       .  A
C45         C454   1.464       .  S
C46          H48   1.082       .  S
N49          N50   1.323       .  A
N49          C53   1.350       .  A
N49         Cu57   2.093       .  S
N50          C51   1.340       .  A
N50         Cu56   2.051       .  S
C51          C52   1.375       .  A
C51          H54   1.082       .  S
C52          C53   1.386       .  A
C52         C356   1.464       .  S
C53          H55   1.081       .  S
Cu56         N59   2.050       .  S
Cu57         N67   2.093       .  S
Cu58         N60   2.048       .  S
Cu58         N66   2.050       .  S
N59          N60   1.320       .  A
N59          C63   1.341       .  A
N60          C61   1.341       .  A
C61          C62   1.376       .  A
C61          H64   1.082       .  S
C62          C63   1.376       .  A
C62          C93   1.449       .  S
C63          H65   1.082       .  S
N66          N67   1.324       .  A
N66          C70   1.340       .  A
N67          C68   1.349       .  A
C68          C69   1.384       .  A
C68          H71   1.081       .  S
C69          C70   1.374       .  A
C69         C186   1.461       .  S
C70          H72   1.082       .  S
N73          N74   1.322       .  A
N73          C77   1.342       .  A
N73         Cu81   2.053       .  S
N74          C75   1.342       .  A
N74         Cu80   2.055   1_565  S
C75          C76   1.376       .  A
C75          H78   1.082       .  S
C76          C77   1.376       .  A
C77          H79   1.082       .  S
Cu80         N83   2.055       .  S
Cu81         N91   2.053       .  S
Cu82         N84   2.054       .  S
Cu82         N90   2.053   1_545  S
N83          N84   1.322   1_655  A
N83          C87   1.342   1_655  A
N84          C85   1.342       .  A
C85          C86   1.376       .  A
C85          H88   1.082       .  S
C86          C87   1.376       .  A
C87          H89   1.082   1_455  S
N90          N91   1.322   1_455  A
N90          C94   1.341       .  A
N91          C92   1.342   1_655  A
C92          C93   1.376       .  A
C92          H95   1.082   1_455  S
C93          C94   1.375       .  A
C94          H96   1.081       .  S
N97          N98   1.322       .  A
N97         C101   1.349       .  A
N97        Cu105   2.102       .  S
N98          C99   1.340       .  A
N98        Cu104   2.060       .  S
C99         C100   1.384       .  A
C99         H102   1.081       .  S
C100        C101   1.396       .  A
C100        C714   1.494       .  S
C101        H103   1.080       .  S
Cu104       N107   2.059       .  S
Cu105       N115   2.102       .  S
Cu106       N108   2.057       .  S
Cu106       N114   2.058       .  S
N107        N108   1.318       .  A
N107        C111   1.343       .  A
N108        C109   1.343       .  A
C109        C110   1.381       .  A
C109        H112   1.082       .  S
C110        C111   1.381       .  A
C110        C291   1.457       .  S
C111        H113   1.081       .  S
N114        N115   1.322       .  A
N114        C118   1.338       .  A
N115        C116   1.352       .  A
C116        C117   1.393       .  A
C116        H119   1.082       .  S
C117        C118   1.381       .  A
C117        C724   1.485       .  S
C118        H120   1.082       .  S
N121        N122   1.321       .  A
N121        C125   1.350       .  A
N121       Cu129   2.095       .  S
N122        C123   1.339       .  A
N122       Cu128   2.070       .  S
C123        C124   1.388       .  A
C123        H126   1.081       .  S
C124        C125   1.395       .  A
C124        C707   1.498       .  S
C125        H127   1.079       .  S
Cu128       N131   2.068       .  S
Cu129       N139   2.095       .  S
Cu130       N132   2.067       .  S
Cu130       N138   2.068       .  S
N131        N132   1.319       .  A
N131        C135   1.345       .  A
N132        C133   1.345       .  A
C133        C134   1.382       .  A
C133        H136   1.082       .  S
C134        C135   1.382       .  A
C135        H137   1.081       .  S
N138        N139   1.322       .  A
N138        C142   1.339       .  A
N139        C140   1.351       .  A
C140        C141   1.393       .  A
C140        H143   1.082       .  S
C141        C142   1.385       .  A
C141        C694   1.492       .  S
C142        H144   1.080       .  S
N145        N146   1.323       .  A
N145        C149   1.350       .  A
N145       Cu153   2.097       .  S
N146        C147   1.340       .  A
N146       Cu152   2.067       .  S
C147        C148   1.382       .  A
C147        H150   1.081       .  S
C148        C149   1.391       .  A
C148        C684   1.486       .  S
C149        H151   1.082       .  S
Cu152       N155   2.066       .  S
Cu153       N163   2.097       .  S
Cu154       N156   2.069       .  S
Cu154       N162   2.070       .  S
N155        N156   1.320       .  A
N155        C159   1.345       .  A
N156        C157   1.345       .  A
C157        C158   1.382       .  A
C157        H160   1.081       .  S
C158        C159   1.382       .  A
C158        C322   1.463       .  S
C159        H161   1.082       .  S
N162        N163   1.322       .  A
N162        C166   1.341       .  A
N163        C164   1.350       .  A
C164        C165   1.393       .  A
C164        H167   1.082       .  S
C165        C166   1.385       .  A
C165        C674   1.491       .  S
C166        H168   1.080       .  S
C169        C170   1.370   1_556  D
C169        C677   1.499       .  S
C169        C717   1.498       .  S
C170        C664   1.497   1_655  S
C170        C704   1.498   1_655  S
C171        C172   1.372   1_554  D
C171        C647   1.496       .  S
C171        C697   1.495       .  S
C172        C657   1.502       .  S
C172        C687   1.501       .  S
N173        N174   1.320       .  A
N173        C177   1.349       .  A
N173       Cu181   2.092       .  S
N174        C175   1.341       .  A
N174       Cu180   2.064       .  S
C175        C176   1.385       .  A
C175        H178   1.078       .  S
C176        C177   1.394       .  A
C176        C667   1.494       .  S
C177        H179   1.082       .  S
Cu180       N183   2.065       .  S
Cu181       N191   2.092       .  S
Cu182       N184   2.065       .  S
Cu182       N190   2.066       .  S
N183        N184   1.320       .  A
N183        C187   1.343       .  A
N184        C185   1.346       .  A
C185        C186   1.382       .  A
C185        H188   1.082       .  S
C186        C187   1.380       .  A
C187        H189   1.081       .  S
N190        N191   1.322       .  A
N190        C194   1.342       .  A
N191        C192   1.347       .  A
C192        C193   1.391       .  A
C192        H195   1.081       .  S
C193        C194   1.384       .  A
C193        C634   1.488       .  S
C194        H196   1.082       .  S
N197        N198   1.323       .  A
N197        C201   1.350       .  A
N197       Cu205   2.100       .  S
N198        C199   1.340       .  A
N198       Cu204   2.063       .  S
C199        C200   1.381       .  A
C199        H202   1.082       .  S
C200        C201   1.392       .  A
C200        C624   1.487       .  S
C201        H203   1.081       .  S
Cu204       N207   2.062       .  S
Cu205       N215   2.100       .  S
Cu206       N208   2.061       .  S
Cu206       N214   2.062       .  S
N207        N208   1.319       .  A
N207        C211   1.345       .  A
N208        C209   1.343       .  A
C209        C210   1.380       .  A
C209        H212   1.081       .  S
C210        C211   1.381       .  A
C210        C267   1.459       .  S
C211        H213   1.082       .  S
N214        N215   1.322       .  A
N214        C218   1.341       .  A
N215        C216   1.350       .  A
C216        C217   1.393       .  A
C216        H219   1.081       .  S
C217        C218   1.382       .  A
C217        C654   1.488       .  S
C218        H220   1.082       .  S
N221        N222   1.323       .  A
N221        C225   1.351       .  A
N221       Cu229   2.104       .  S
N222        C223   1.340       .  A
N222       Cu228   2.061       .  S
C223        C224   1.381       .  A
C223        H226   1.081       .  S
C224        C225   1.393       .  A
C224        C617   1.487       .  S
C225        H227   1.082       .  S
Cu228       N231   2.061       .  S
Cu229       N239   2.104       .  S
Cu230       N232   2.066       .  S
Cu230       N238   2.067       .  S
N231        N232   1.319       .  A
N231        C235   1.343       .  A
N232        C233   1.346       .  A
C233        C234   1.383       .  A
C233        H236   1.081       .  S
C234        C235   1.381       .  A
C235        H237   1.082       .  S
N238        N239   1.322       .  A
N238        C242   1.341       .  A
N239        C240   1.350       .  A
C240        C241   1.397       .  A
C240        H243   1.079       .  S
C241        C242   1.387       .  A
C241        C644   1.499       .  S
C242        H244   1.081       .  S
C245        C246   1.369   1_546  D
C245        C627   1.501       .  S
C245        C727   1.496       .  S
C246        C614   1.492       .  S
C246        C637   1.492       .  S
N247        N248   1.323       .  A
N247        C251   1.347       .  A
N247       Cu255   2.084       .  S
N248        C249   1.341       .  A
N248       Cu254   2.055       .  S
C249        C250   1.375       .  A
C249        H252   1.082       .  S
C250        C251   1.382       .  A
C250        C404   1.460       .  S
C251        H253   1.081       .  S
Cu254       N257   2.053       .  S
Cu255       N265   2.083       .  S
Cu256       N258   2.050       .  S
Cu256       N264   2.052       .  S
N257        N258   1.321       .  A
N257        C261   1.342       .  A
N258        C259   1.341       .  A
C259        C260   1.376       .  A
C259        H262   1.082       .  S
C260        C261   1.376       .  A
C260        C308   1.449       .  S
C261        H263   1.082       .  S
N264        N265   1.323       .  A
N264        C268   1.341       .  A
N265        C266   1.348       .  A
C266        C267   1.383       .  A
C266        H269   1.081       .  S
C267        C268   1.375       .  A
C268        H270   1.082       .  S
N271        N272   1.323       .  A
N271        C275   1.347       .  A
N271       Cu279   2.082       .  S
N272        C273   1.341       .  A
N272       Cu278   2.053       .  S
C273        C274   1.375       .  A
C273        H276   1.082       .  S
C274        C275   1.382       .  A
C274        C380   1.458       .  S
C275        H277   1.081       .  S
Cu278       N281   2.051       .  S
Cu279       N289   2.081       .  S
Cu280       N282   2.048       .  S
Cu280       N288   2.050       .  S
N281        N282   1.320       .  A
N281        C285   1.341       .  A
N282        C283   1.341       .  A
C283        C284   1.376       .  A
C283        H286   1.082       .  S
C284        C285   1.376       .  A
C284        C315   1.448       .  S
C285        H287   1.082       .  S
N288        N289   1.323       .  A
N288        C292   1.340       .  A
N289        C290   1.347       .  A
C290        C291   1.382       .  A
C290        H293   1.081       .  S
C291        C292   1.374       .  A
C292        H294   1.082       .  S
N295        N296   1.321       .  A
N295        C299   1.341       .  A
N295       Cu303   2.053       .  S
N296        C297   1.342       .  A
N296       Cu302   2.053       .  S
C297        C298   1.376       .  A
C297        H300   1.082       .  S
C298        C299   1.376       .  A
C298        C332   1.449       .  S
C299        H301   1.082       .  S
Cu302       N305   2.053   1_665  S
Cu303       N313   2.052   1_565  S
Cu304       N306   2.052   1_655  S
Cu304       N312   2.052       .  S
N305        N306   1.322       .  A
N305        C309   1.341       .  A
N306        C307   1.341       .  A
C307        C308   1.376       .  A
C307        H310   1.082       .  S
C308        C309   1.376       .  A
C309        H311   1.082   1_545  S
N312        N313   1.322       .  A
N312        C316   1.341       .  A
N313        C314   1.341       .  A
C314        C315   1.375       .  A
C314        H317   1.081   1_545  S
C315        C316   1.376       .  A
C316        H318   1.082       .  S
N319        N320   1.324       .  A
N319        C323   1.349       .  A
N319       Cu327   2.094       .  S
N320        C321   1.342       .  A
N320       Cu326   2.055       .  S
C321        C322   1.375       .  A
C321        H324   1.082       .  S
C322        C323   1.384       .  A
C323        H325   1.081       .  S
Cu326       N329   2.053       .  S
Cu327       N337   2.094       .  S
Cu328       N330   2.050       .  S
Cu328       N336   2.052       .  S
N329        N330   1.320       .  A
N329        C333   1.342       .  A
N330        C331   1.341       .  A
C331        C332   1.376       .  A
C331        H334   1.082       .  S
C332        C333   1.377       .  A
C333        H335   1.082       .  S
N336        N337   1.323       .  A
N336        C340   1.341       .  A
N337        C338   1.349       .  A
C338        C339   1.385       .  A
C338        H341   1.081       .  S
C339        C340   1.375       .  A
C339        C478   1.463       .  S
C340        H342   1.082       .  S
N343        N344   1.322       .  A
N343        C347   1.349       .  A
N343       Cu351   2.093       .  S
N344        C345   1.341       .  A
N344       Cu350   2.070       .  S
C345        C346   1.385       .  A
C345        H348   1.080       .  S
C346        C347   1.392       .  A
C346        C607   1.489       .  S
C347        H349   1.082       .  S
Cu350       N353   2.069       .  S
Cu351       N361   2.093       .  S
Cu352       N354   2.067       .  S
Cu352       N360   2.066       .  S
N353        N354   1.321       .  A
N353        C357   1.347       .  A
N354        C355   1.342       .  A
C355        C356   1.381       .  A
C355        H358   1.081       .  S
C356        C357   1.383       .  A
C357        H359   1.082       .  S
N360        N361   1.320       .  A
N360        C364   1.341       .  A
N361        C362   1.349       .  A
C362        C363   1.395       .  A
C362        H365   1.082       .  S
C363        C364   1.386       .  A
C363        C594   1.496       .  S
C364        H366   1.078       .  S
N367        N368   1.323       .  A
N367        C371   1.351       .  A
N367       Cu375   2.104       .  S
N368        C369   1.340       .  A
N368       Cu374   2.064       .  S
C369        C370   1.382       .  A
C369        H372   1.081       .  S
C370        C371   1.393       .  A
C370        C577   1.489       .  S
C371        H373   1.082       .  S
Cu374       N377   2.063       .  S
Cu375       N385   2.104       .  S
Cu376       N378   2.056       .  S
Cu376       N384   2.057       .  S
N377        N378   1.319       .  A
N377        C381   1.345       .  A
N378        C379   1.342       .  A
C379        C380   1.379       .  A
C379        H382   1.081       .  S
C380        C381   1.382       .  A
C381        H383   1.082       .  S
N384        N385   1.322       .  A
N384        C388   1.341       .  A
N385        C386   1.351       .  A
C386        C387   1.393       .  A
C386        H389   1.082       .  S
C387        C388   1.380       .  A
C387        C584   1.485       .  S
C388        H390   1.082       .  S
N391        N392   1.322       .  A
N391        C395   1.350       .  A
N391       Cu399   2.088       .  S
N392        C393   1.341       .  A
N392       Cu398   2.068       .  S
C393        C394   1.383       .  A
C393        H396   1.081       .  S
C394        C395   1.390       .  A
C394        C564   1.484       .  S
C395        H397   1.082       .  S
Cu398       N401   2.067       .  S
Cu399       N409   2.089       .  S
Cu400       N402   2.063       .  S
Cu400       N408   2.064       .  S
N401        N402   1.320       .  A
N401        C405   1.344       .  A
N402        C403   1.345       .  A
C403        C404   1.381       .  A
C403        H406   1.082       .  S
C404        C405   1.381       .  A
C405        H407   1.081       .  S
N408        N409   1.322       .  A
N408        C412   1.342       .  A
N409        C410   1.346       .  A
C410        C411   1.390       .  A
C410        H413   1.082       .  S
C411        C412   1.383       .  A
C411        C554   1.484       .  S
C412        H414   1.081       .  S
N415        N416   1.322       .  A
N415        C419   1.351       .  A
N415       Cu423   2.095       .  S
N416        C417   1.339       .  A
N416       Cu422   2.060       .  S
C417        C418   1.380       .  A
C417        H420   1.082       .  S
C418        C419   1.390       .  A
C418        C547   1.483       .  S
C419        H421   1.082       .  S
Cu422       N425   2.060       .  S
Cu423       N433   2.095       .  S
Cu424       N426   2.077       .  S
Cu424       N432   2.079       .  S
N425        N426   1.320       .  A
N425        C429   1.342       .  A
N426        C427   1.348       .  A
C427        C428   1.385       .  A
C427        H430   1.081       .  S
C428        C429   1.380       .  A
C429        H431   1.082       .  S
N432        N433   1.322       .  A
N432        C436   1.341       .  A
N433        C434   1.349       .  A
C434        C435   1.395       .  A
C434        H437   1.078       .  S
C435        C436   1.390       .  A
C435        C534   1.502       .  S
C436        H438   1.081       .  S
C439        C440   1.374   1_565  D
C439        C537   1.498       .  S
C439        C597   1.498       .  S
C440        C567   1.506       .  S
C440        C587   1.505       .  S
N441        N442   1.322       .  A
N441        C445   1.350       .  A
N441       Cu449   2.095       .  S
N442        C443   1.342       .  A
N442       Cu448   2.075       .  S
C443        C444   1.387       .  A
C443        H446   1.081       .  S
C444        C445   1.394       .  A
C444        C527   1.496       .  S
C445        H447   1.080       .  S
Cu448       N451   2.074       .  S
Cu449       N459   2.095       .  S
Cu450       N452   2.068       .  S
Cu450       N458   2.067       .  S
N451        N452   1.321       .  A
N451        C455   1.347       .  A
N452        C453   1.344       .  A
C453        C454   1.381       .  A
C453        H456   1.081       .  S
C454        C455   1.383       .  A
C455        H457   1.081       .  S
N458        N459   1.321       .  A
N458        C462   1.342       .  A
N459        C460   1.348       .  A
C460        C461   1.394       .  A
C460        H463   1.080       .  S
C461        C462   1.387       .  A
C461        C514   1.494       .  S
C462        H464   1.081       .  S
N465        N466   1.322       .  A
N465        C469   1.350       .  A
N465       Cu473   2.105       .  S
N466        C467   1.341       .  A
N466       Cu472   2.065       .  S
C467        C468   1.385       .  A
C467        H470   1.081       .  S
C468        C469   1.395       .  A
C468        C497   1.494       .  S
C469        H471   1.080       .  S
Cu472       N475   2.065       .  S
Cu473       N483   2.105       .  S
Cu474       N476   2.068       .  S
Cu474       N482   2.068       .  S
N475        N476   1.319       .  A
N475        C479   1.345       .  A
N476        C477   1.345       .  A
C477        C478   1.383       .  A
C477        H480   1.081       .  S
C478        C479   1.382       .  A
C479        H481   1.082       .  S
N482        N483   1.323       .  A
N482        C486   1.341       .  A
N483        C484   1.353       .  A
C484        C485   1.391       .  A
C484        H487   1.082       .  S
C485        C486   1.381       .  A
C485        C504   1.486       .  S
C486        H488   1.082       .  S
C489        C490   1.370       .  D
C489        C517   1.497   1_655  S
C489        C604   1.498   1_655  S
C490        C494   1.497       .  S
C490        C574   1.499       .  S
C491        C492   1.371       .  D
C491        C507   1.501       .  S
C491        C557   1.497       .  S
C492        C524   1.498       .  S
C492        C544   1.493       .  S
C493        C494   1.405       .  A
C493        C498   1.402       .  A
C493        H500   1.079       .  S
C494        C495   1.408       .  A
C495        C496   1.398       .  A
C495       Br502   1.917       .  S
C496        C497   1.408       .  A
C496        H501   1.082       .  S
C497        C498   1.414       .  A
C498       Br499   1.918       .  S
C503        C504   1.407       .  A
C503        C508   1.410       .  A
C503        H510   1.083       .  S
C504        C505   1.410       .  A
C505        C506   1.392       .  A
C505       Br512   1.923       .  S
C506        C507   1.405       .  A
C506        H511   1.083       .  S
C507        C508   1.415       .  A
C508       Br509   1.917       .  S
C513        C514   1.409       .  A
C513        C518   1.399       .  A
C513        H520   1.082       .  S
C514        C515   1.415       .  A
C515        C516   1.401       .  A
C515       Br522   1.919       .  S
C516        C517   1.404       .  A
C516        H521   1.079       .  S
C517        C518   1.408       .  A
C518       Br519   1.917   1_455  S
C523        C524   1.404       .  A
C523        C528   1.401       .  A
C523        H530   1.084       .  S
C524        C525   1.408       .  A
C525        C526   1.399       .  A
C525       Br532   1.916       .  S
C526        C527   1.410       .  A
C526        H531   1.082       .  S
C527        C528   1.417       .  A
C528       Br529   1.919       .  S
C533        C534   1.409       .  A
C533        C538   1.397       .  A
C533        H540   1.081       .  S
C534        C535   1.419       .  A
C535        C536   1.404       .  A
C535       Br542   1.918       .  S
C536        C537   1.403       .  A
C536        H541   1.078       .  S
C537        C538   1.413       .  A
C538       Br539   1.923       .  S
C543        C544   1.404       .  A
C543        C548   1.391       .  A
C543        H550   1.083       .  S
C544        C545   1.412       .  A
C545        C546   1.407       .  A
C545       Br552   1.916       .  S
C546        C547   1.406       .  A
C546        H551   1.083       .  S
C547        C548   1.411       .  A
C548       Br549   1.923       .  S
C553        C554   1.401       .  A
C553        C558   1.395       .  A
C553        H560   1.083       .  S
C554        C555   1.415       .  A
C555        C556   1.401       .  A
C555       Br562   1.919       .  S
C556        C557   1.404       .  A
C556        H561   1.083       .  S
C557        C558   1.413       .  A
C558       Br559   1.917       .  S
C563        C564   1.403       .  A
C563        C568   1.402       .  A
C563        H570   1.083       .  S
C564        C565   1.410       .  A
C565        C566   1.397       .  A
C565       Br572   1.920       .  S
C566        C567   1.404       .  A
C566        H571   1.072   1_545  S
C567        C568   1.415       .  A
C568       Br569   1.917       .  S
C573        C574   1.402       .  A
C573        C578   1.397       .  A
C573        H580   1.077       .  S
C574        C575   1.414       .  A
C575        C576   1.403       .  A
C575       Br582   1.915       .  S
C576        C577   1.404       .  A
C576        H581   1.083       .  S
C577        C578   1.414       .  A
C578       Br579   1.921       .  S
C583        C584   1.404       .  A
C583        C588   1.399       .  A
C583        H590   1.083       .  S
C584        C585   1.408       .  A
C585        C586   1.401       .  A
C585       Br592   1.918       .  S
C586        C587   1.406       .  A
C586        H591   1.067       .  S
C587        C588   1.413       .  A
C588       Br589   1.919       .  S
C593        C594   1.407       .  A
C593        C598   1.402       .  A
C593        H600   1.082       .  S
C594        C595   1.419       .  A
C595        C596   1.398       .  A
C595       Br602   1.921       .  S
C596        C597   1.399       .  A
C596        H601   1.077       .  S
C597        C598   1.415       .  A
C598       Br599   1.922       .  S
C603        C604   1.402       .  A
C603        C608   1.397       .  A
C603        H610   1.078   1_455  S
C604        C605   1.413       .  A
C605        C606   1.402       .  A
C605       Br612   1.915       .  S
C606        C607   1.404       .  A
C606        H611   1.082       .  S
C607        C608   1.414       .  A
C608       Br609   1.920       .  S
C613        C614   1.400       .  A
C613        C618   1.395       .  A
C613        H620   1.083       .  S
C614        C615   1.410   1_554  A
C615        C616   1.405   1_556  A
C615       Br622   1.915       .  S
C616        C617   1.407       .  A
C616        H621   1.083   1_554  S
C617        C618   1.416       .  A
C618       Br619   1.922       .  S
C623        C624   1.408       .  A
C623        C628   1.402       .  A
C623        H630   1.083       .  S
C624        C625   1.410       .  A
C625        C626   1.397       .  A
C625       Br632   1.920   1_556  S
C626        C627   1.409       .  A
C626        H631   1.083   1_556  S
C627        C628   1.413       .  A
C628       Br629   1.919   1_545  S
C633        C634   1.410       .  A
C633        C638   1.402       .  A
C633        H640   1.083       .  S
C634        C635   1.412       .  A
C635        C636   1.395   1_554  A
C635       Br642   1.920   1_554  S
C636        C637   1.405   1_556  A
C636        H641   1.082       .  S
C637        C638   1.409       .  A
C638       Br639   1.918       .  S
C643        C644   1.411       .  A
C643        C648   1.398       .  A
C643        H650   1.081       .  S
C644        C645   1.416       .  A
C645        C646   1.402   1_554  A
C645       Br652   1.918   1_554  S
C646        C647   1.404   1_556  A
C646        H651   1.080       .  S
C647        C648   1.406       .  A
C648       Br649   1.916       .  S
C653        C654   1.405       .  A
C653        C658   1.398       .  A
C653        H660   1.083       .  S
C654        C655   1.410       .  A
C655        C656   1.401   1_556  A
C655       Br662   1.918   1_556  S
C656        C657   1.406   1_554  A
C656        H661   1.076       .  S
C657        C658   1.412       .  A
C658       Br659   1.918       .  S
C663        C664   1.400       .  A
C663        C668   1.397       .  A
C663        H670   1.077   1_455  S
C664        C665   1.416   1_554  A
C665        C666   1.403   1_556  A
C665       Br672   1.918       .  S
C666        C667   1.406       .  A
C666        H671   1.082   1_554  S
C667        C668   1.417       .  A
C668       Br669   1.922       .  S
C673        C674   1.406       .  A
C673        C678   1.404   1_556  A
C673        H680   1.082   1_556  S
C674        C675   1.414       .  A
C675        C676   1.397       .  A
C675       Br682   1.921       .  S
C676        C677   1.400       .  A
C676        H681   1.073       .  S
C677        C678   1.412   1_556  A
C678       Br679   1.914       .  S
C683        C684   1.403       .  A
C683        C688   1.401   1_556  A
C683        H690   1.083   1_556  S
C684        C685   1.412       .  A
C685        C686   1.398       .  A
C685       Br692   1.920       .  S
C686        C687   1.403       .  A
C686        H691   1.078       .  S
C687        C688   1.415   1_556  A
C688       Br689   1.917       .  S
C693        C694   1.407       .  A
C693        C698   1.405   1_554  A
C693        H700   1.082   1_554  S
C694        C695   1.414       .  A
C695        C696   1.394       .  A
C695       Br702   1.921       .  S
C696        C697   1.400       .  A
C696        H701   1.078       .  S
C697        C698   1.411   1_554  A
C698       Br699   1.915       .  S
C703        C704   1.404   1_556  A
C703        C708   1.404   1_556  A
C703        H710   1.078       .  S
C704        C705   1.413       .  A
C705        C706   1.396       .  A
C705       Br712   1.917   1_455  S
C706        C707   1.407       .  A
C706        H711   1.081       .  S
C707        C708   1.416       .  A
C708       Br709   1.918   1_554  S
C713        C714   1.409       .  A
C713        C718   1.399       .  A
C713        H720   1.082       .  S
C714        C715   1.412       .  A
C715        C716   1.399   1_556  A
C715       Br722   1.919   1_556  S
C716        C717   1.403   1_554  A
C716        H721   1.073       .  S
C717        C718   1.408       .  A
C718       Br719   1.916       .  S
C723        C724   1.403       .  A
C723        C728   1.391       .  A
C723        H730   1.083       .  S
C724        C725   1.412       .  A
C725        C726   1.407   1_556  A
C725       Br732   1.916   1_556  S
C726        C727   1.408   1_554  A
C726        H731   1.083       .  S
C727        C728   1.410       .  A
C728       Br729   1.917       .  S
