geometry optimzed in LAMMPS
_audit_creation_date              2020-11-30 
_audit_creation_method            'lammps2cif' 
_symmetry_space_group_name_H-M    'P1' 
_symmetry_Int_Tables_number       1 
_symmetry_cell_setting            triclinic 
loop_ 
_symmetry_equiv_pos_as_xyz 
  x,y,z 
_cell_length_a                    33.73724622621752 
_cell_length_b                    33.6916892134829 
_cell_length_c                    33.713457910654405 
_cell_angle_alpha                 90.05516793322492 
_cell_angle_beta                  89.77219441523133 
_cell_angle_gamma                 90.04841271573206 
loop_ 
_atom_site_label 
_atom_site_type_symbol 
_atom_site_fract_x 
_atom_site_fract_y 
_atom_site_fract_z 
_atom_site_charge 
C1          C  0.50019385  0.79209749  0.70762889     0.03470
C2          C  0.49978193  0.83290871  0.71836015    -0.12670
C3          C  0.49613922  0.86202910  0.68908292     0.00980
C4          C  0.49354609  0.84969183  0.64953858    -0.11200
C5          C  0.49775868  0.81018068  0.63744434     0.03470
C6          C  0.50024296  0.78093930  0.66687583    -0.10620
H7          H  0.50213652  0.84181312  0.74912071     0.09060
H8          H  0.48905530  0.87195386  0.62694977     0.06830
H9          H  0.50187059  0.74999542  0.65831731     0.06440
C10         C  0.50137698  0.67049649  0.82924140     0.03470
C11         C  0.49973166  0.62966995  0.81877167    -0.12670
C12         C  0.49809544  0.60072908  0.84846426     0.00980
C13         C  0.49643065  0.61328809  0.88802343    -0.11200
C14         C  0.50017860  0.65299658  0.89957385     0.03470
C15         C  0.50204899  0.68194755  0.86985417    -0.10620
H16         H  0.49935440  0.62059360  0.78797332     0.09060
H17         H  0.49254284  0.59111882  0.91091176     0.06590
H18         H  0.50448318  0.71294379  0.87805377     0.06440
C19         C  0.81014159  0.67090255  0.51967153     0.03470
C20         C  0.85083562  0.68211123  0.51990555    -0.12670
C21         C  0.88034906  0.65291493  0.52129618     0.00980
C22         C  0.86845463  0.61318905  0.52404745    -0.11200
C23         C  0.82899080  0.60090470  0.52083708     0.03470
C24         C  0.79954690  0.63005809  0.51886807    -0.10620
H25         H  0.85932187  0.71310874  0.51926663     0.09060
H26         H  0.89097911  0.59072475  0.52807485     0.06590
H27         H  0.76884436  0.62113842  0.51618269     0.06440
C28         C  0.68935736  0.79355907  0.51971130     0.03470
C29         C  0.64865094  0.78250285  0.51840658    -0.12670
C30         C  0.61922430  0.81181186  0.51747872     0.00980
C31         C  0.63127252  0.85161464  0.51796942    -0.11200
C32         C  0.67082825  0.86366718  0.52102873     0.03470
C33         C  0.70016438  0.83432385  0.52165318    -0.10620
H34         H  0.64014559  0.75151721  0.51735409     0.09060
H35         H  0.60882750  0.87438904  0.51621560     0.06590
H36         H  0.73094312  0.84300212  0.52426352     0.06440
C37         C  0.81129732  0.48187996  0.70908544     0.03470
C38         C  0.85195911  0.48303959  0.71997656    -0.12670
C39         C  0.88143019  0.48206817  0.69061912     0.00980
C40         C  0.86957838  0.47944496  0.65095300    -0.11200
C41         C  0.82994770  0.48113235  0.63896901     0.03470
C42         C  0.80053440  0.48168754  0.66835362    -0.10620
H43         H  0.86046870  0.48526312  0.75082198     0.09060
H44         H  0.89223123  0.47645338  0.62835519     0.06590
H45         H  0.76964679  0.48174967  0.65972439     0.06440
C46         C  0.68718626  0.48141181  0.82870186     0.03470
C47         C  0.64642177  0.48073153  0.81813426    -0.12670
C48         C  0.61723904  0.48334520  0.84768226     0.00980
C49         C  0.62946325  0.48742423  0.88705752    -0.11200
C50         C  0.66900235  0.48413443  0.89885753     0.03470
C51         C  0.69822241  0.48193848  0.86935773    -0.10620
H52         H  0.63763117  0.47771478  0.78743330     0.09060
H53         H  0.60709844  0.49222316  0.90964962     0.06590
H54         H  0.72913481  0.48098107  0.87783604     0.06440
C55         C  0.81019114  0.79172449  0.01844124     0.03470
C56         C  0.79906871  0.83232478  0.01805284    -0.12670
C57         C  0.82835560  0.86175252  0.01987374     0.00980
C58         C  0.86796022  0.84970615  0.02276721    -0.11200
C59         C  0.88006803  0.81004335  0.02012142     0.03470
C60         C  0.85073478  0.78063026  0.01890943    -0.10620
H61         H  0.76810521  0.84065232  0.01655016     0.09060
H62         H  0.89044659  0.87227157  0.02664891     0.06590
H63         H  0.85909383  0.74961014  0.01785139     0.06440
C64         C  0.68891174  0.67130238  0.01970441     0.03470
C65         C  0.64845020  0.68269845  0.01982617    -0.12670
C66         C  0.61888975  0.65351280  0.01987384     0.00980
C67         C  0.63064993  0.61369562  0.01824238    -0.11200
C68         C  0.67031135  0.60133643  0.01830470     0.03470
C69         C  0.69980410  0.63061532  0.01946907    -0.10620
H70         H  0.64033481  0.71379465  0.02049805     0.09060
H71         H  0.60776427  0.59129844  0.01693151     0.06590
H72         H  0.73076490  0.62212643  0.01950583     0.06440
C73         C  0.80998877  0.98194272  0.83030940     0.03470
C74         C  0.85073941  0.98304335  0.81948323    -0.12670
C75         C  0.87991570  0.98102679  0.84877380     0.00980
C76         C  0.86778797  0.97749926  0.88831220    -0.11200
C77         C  0.82819948  0.98031588  0.90047439     0.03470
C78         C  0.79892643  0.98165832  0.87112411    -0.10620
H79         H  0.85958083  0.98595484  0.78872686     0.09060
H80         H  0.89027428  0.97327051  0.91070613     0.06590
H81         H  0.76800496  0.98219653  0.87983508     0.06440
C82         C  0.68771024  0.98225382  0.70955899     0.03470
C83         C  0.64691540  0.98060097  0.72019899    -0.12670
C84         C  0.61784237  0.98318109  0.69083779     0.00980
C85         C  0.63016437  0.98815547  0.65149728    -0.11200
C86         C  0.66990434  0.98685899  0.63943814     0.03470
C87         C  0.69899138  0.98405631  0.66886301    -0.10620
H88         H  0.63800463  0.97683592  0.75084532     0.09060
H89         H  0.60761266  0.99212514  0.62917273     0.06590
H90         H  0.72997978  0.98418094  0.66036226     0.06440
C91         C  0.99871777  0.79281532  0.83042162     0.03470
C92         C  0.99772276  0.83338584  0.81930329    -0.12670
C93         C  0.99853521  0.86284276  0.84863847     0.00980
C94         C  0.00071879  0.85082960  0.88835961    -0.11200
C95         C  0.00117353  0.81103319  0.90039474     0.03470
C96         C  0.00017038  0.78168155  0.87096047    -0.10620
H97         H  0.99637155  0.84167189  0.78830052     0.09060
H98         H  0.00188340  0.87354317  0.91096742     0.06590
H99         H  0.00065373  0.75062560  0.87923278     0.06440
C100        C  0.99829018  0.67157080  0.70991256     0.03470
C101        C  0.00032573  0.63098548  0.72086908    -0.12670
C102        C  0.00290365  0.60175312  0.69139420     0.00980
C103        C  0.00391473  0.61407093  0.65172403    -0.11200
C104        C  0.99976947  0.65365706  0.63986909     0.03470
C105        C  0.99738555  0.68283952  0.66939336    -0.10620
H106        H  0.00010700  0.62253468  0.75186254     0.09060
H107        H  0.00736314  0.59179236  0.62889163     0.06590
H108        H  0.99497532  0.71382357  0.66120651     0.06440
C109        C  0.49977551  0.17045835  0.70939459     0.03470
C110        C  0.49995819  0.12964301  0.71991351    -0.12670
C111        C  0.49781073  0.10058372  0.69034223     0.00980
C112        C  0.49464569  0.11296157  0.65088801    -0.11200
C113        C  0.49799579  0.15264760  0.63917474     0.03470
C114        C  0.49983925  0.18178008  0.66877662    -0.10620
H115        H  0.50231701  0.12072012  0.75065607     0.09060
H116        H  0.49032394  0.09063810  0.62820428     0.06590
H117        H  0.50111899  0.21279699  0.66045597     0.06440
C118        C  0.50106344  0.29213235  0.83084805     0.03470
C119        C  0.49940886  0.33283360  0.82002082    -0.12670
C120        C  0.49837834  0.36212268  0.84945202     0.00980
C121        C  0.49922711  0.35004257  0.88916427    -0.11200
C122        C  0.50121481  0.31032370  0.90102329     0.03470
C123        C  0.50166173  0.28103386  0.87152004    -0.10620
H124        H  0.49810272  0.34146852  0.78913073     0.09060
H125        H  0.49825742  0.37258780  0.91195952     0.06590
H126        H  0.50312922  0.25004718  0.87991631     0.06440
O127        O  0.50619700  0.03605478  0.66637383    -0.71430
O128        O  0.49208656  0.92713117  0.66559650    -0.71650
O129        O  0.44470644  0.98850422  0.66543230    -0.71510
O130        O  0.55360084  0.97445911  0.66664202    -0.71520
O131        O  0.55577117  0.98434630  0.73001719    -0.71480
O132        O  0.44054224  0.97812731  0.72864413    -0.71500
O133        O  0.50083724  0.92345066  0.72900064    -0.71440
O134        O  0.49506470  0.03884646  0.72958740    -0.71630
V135        V  0.49915170  0.98152026  0.66754009     1.35240
V136        V  0.49813512  0.98117949  0.72890104     1.35170
C137        C  0.50006940  0.05687109  0.69673999     0.77800
C138        C  0.49609323  0.90583763  0.69588525     0.77860
C139        C  0.42322565  0.98293712  0.69549084     0.77730
C140        C  0.57411904  0.98010033  0.69718090     0.77690
C141        C  0.99956781  0.17154434  0.83002424     0.03470
C142        C  0.00073496  0.18267731  0.87066153    -0.12670
C143        C  0.00002331  0.15338254  0.90008831     0.00980
C144        C  0.99718057  0.11369833  0.88817619    -0.11200
C145        C  0.99870239  0.10152791  0.84848839     0.03470
C146        C  0.99931334  0.13082031  0.81908372    -0.10620
H147        H  0.00191902  0.21368560  0.87909292     0.09060
H148        H  0.99404964  0.09123892  0.91087954     0.06590
H149        H  0.00008897  0.12222666  0.78812337     0.06440
C150        C  0.99966095  0.29287447  0.70886396     0.03470
C151        C  0.99938638  0.33357126  0.71993080    -0.12670
C152        C  0.99947242  0.36297087  0.69063782     0.00980
C153        C  0.00082796  0.35090796  0.65090604    -0.11200
C154        C  0.00052838  0.31110855  0.63878637     0.03470
C155        C  0.99957497  0.28177685  0.66818798    -0.10620
H156        H  0.99853783  0.34205359  0.75092061     0.09060
H157        H  0.00197728  0.37364034  0.62836445     0.06590
H158        H  0.99960612  0.25075023  0.65973699     0.06440
C159        C  0.18823906  0.98140304  0.82919745     0.03470
C160        C  0.19902014  0.98024801  0.86985409    -0.12670
C161        C  0.16970141  0.98186158  0.89922299     0.00980
C162        C  0.13018651  0.98520388  0.88741282    -0.11200
C163        C  0.11813357  0.98287140  0.84782548     0.03470
C164        C  0.14751875  0.98168862  0.81833828    -0.10620
H165        H  0.22978869  0.97762388  0.87845044     0.09060
H166        H  0.10777372  0.98906302  0.91013283     0.06590
H167        H  0.13894540  0.98127944  0.78741997     0.06440
C168        C  0.30942309  0.98200980  0.70675317     0.03470
C169        C  0.35006412  0.98177166  0.71778746    -0.12670
C170        C  0.37959401  0.98138194  0.68847482     0.00980
C171        C  0.36781711  0.98001380  0.64875360    -0.11200
C172        C  0.32827824  0.98265818  0.63675719     0.03470
C173        C  0.29879354  0.98340791  0.66604357    -0.10620
H174        H  0.35848199  0.98164830  0.74875480     0.09060
H175        H  0.39044647  0.97713723  0.62611823     0.06590
H176        H  0.26802275  0.98562210  0.65735158     0.06440
O177        O  0.05655294  0.98559755  0.80844030    -0.71430
O178        O  0.94137778  0.97875047  0.80895731    -0.71650
O179        O  0.99559506  0.03989308  0.80874916    -0.71510
O180        O  0.00210759  0.92440973  0.80878859    -0.71520
O181        O  0.99155487  0.92783581  0.87202461    -0.71480
O182        O  0.00620597  0.03674105  0.87191441    -0.71500
O183        O  0.94449178  0.98952820  0.87216973    -0.71440
O184        O  0.05338956  0.97509033  0.87167713    -0.71630
V185        V  0.99892780  0.98217213  0.80911539     1.35240
V186        V  0.99893052  0.98229142  0.87044411     1.35170
C187        C  0.07440752  0.98088081  0.84132680     0.77800
C188        C  0.92353962  0.98354254  0.84198295     0.77860
C189        C  0.00046295  0.05776954  0.84171030     0.77730
C190        C  0.99698850  0.90664432  0.84178685     0.77690
C191        C  0.18956181  0.48158069  0.70890342     0.03470
C192        C  0.20025016  0.48163401  0.66805626    -0.12670
C193        C  0.17079653  0.48456649  0.63906381     0.00980
C194        C  0.13139930  0.48813632  0.65162221    -0.11200
C195        C  0.11950827  0.48374888  0.69114126     0.03470
C196        C  0.14890755  0.48139022  0.72019880    -0.10620
H197        H  0.23098174  0.47903357  0.65907194     0.09060
H198        H  0.10880456  0.49331015  0.62953146     0.06590
H199        H  0.14037142  0.47975065  0.75115443     0.06440
C200        C  0.30910171  0.48166027  0.83190046     0.03470
C201        C  0.29833103  0.48239161  0.87271094    -0.12670
C202        C  0.32776236  0.48030836  0.90180812     0.00980
C203        C  0.36717688  0.47652778  0.88944783    -0.11200
C204        C  0.37910702  0.47962815  0.84981800     0.03470
C205        C  0.34975447  0.48142735  0.82067521    -0.10620
H206        H  0.26756940  0.48505286  0.88157416     0.09060
H207        H  0.38968803  0.47200184  0.91176600     0.06590
H208        H  0.35831740  0.48234495  0.78969368     0.06440
O209        O  0.94635585  0.49026890  0.66738476    -0.71430
O210        O  0.05507472  0.47451472  0.66773092    -0.71650
O211        O  0.99273211  0.42801121  0.66743559    -0.71510
O212        O  0.00878543  0.53671781  0.66773724    -0.71520
O213        O  0.99767469  0.54008340  0.73087083    -0.71480
O214        O  0.00317172  0.42453047  0.73058898    -0.71500
O215        O  0.05792297  0.48548114  0.73091744    -0.71440
O216        O  0.94266443  0.47928598  0.73051733    -0.71630
V217        V  0.00071579  0.48237127  0.66906381     1.35240
V218        V  0.00032302  0.48231617  0.73036515     1.35170
C219        C  0.92508348  0.48432754  0.69751062     0.77800
C220        C  0.07590323  0.48077077  0.69795525     0.77860
C221        C  0.99808259  0.40678577  0.69758325     0.77730
C222        C  0.00356186  0.55789202  0.69802715     0.77690
O223        O  0.44040209  0.47762078  0.80972170    -0.71430
O224        O  0.55549896  0.48480043  0.80866091    -0.71650
O225        O  0.50127031  0.42352382  0.80945592    -0.71510
O226        O  0.49455876  0.53891592  0.80912411    -0.71520
O227        O  0.50478706  0.53606654  0.87238449    -0.71480
O228        O  0.49159773  0.42707169  0.87281835    -0.71500
O229        O  0.55279069  0.47503474  0.87205437    -0.71440
O230        O  0.44374250  0.48801057  0.87298333    -0.71630
V231        V  0.49793838  0.48122595  0.80965783     1.35240
V232        V  0.49823604  0.48153413  0.87103074     1.35170
C233        C  0.42269636  0.48207188  0.84285438     0.77800
C234        C  0.57355328  0.48064786  0.84149937     0.77860
C235        C  0.49665952  0.40585274  0.84256196     0.77730
C236        C  0.49930224  0.55693056  0.84202848     0.77690
C237        C  0.49985272  0.67156990  0.20784911     0.03470
C238        C  0.50085666  0.63080902  0.21862513    -0.12670
C239        C  0.50245081  0.60156055  0.18915201     0.00980
C240        C  0.50323219  0.61386179  0.14944151    -0.11200
C241        C  0.49971168  0.65351766  0.13768538     0.03470
C242        C  0.49866731  0.68271657  0.16722194    -0.10620
H243        H  0.50008354  0.62210181  0.24953357     0.09060
H244        H  0.50625818  0.59158924  0.12652695     0.06590
H245        H  0.49709841  0.71369945  0.15884024     0.06440
C246        C  0.49827507  0.79378671  0.32864380     0.03470
C247        C  0.49818402  0.83452487  0.31771566    -0.12670
C248        C  0.49991613  0.86385758  0.34710322     0.00980
C249        C  0.50331357  0.85175990  0.38663674    -0.11200
C250        C  0.50088708  0.81209042  0.39866713     0.03470
C251        C  0.49898848  0.78277317  0.36930289    -0.10620
H252        H  0.49708240  0.84316051  0.28681029     0.09060
H253        H  0.50738600  0.87431687  0.40911424     0.06590
H254        H  0.49764085  0.75180377  0.37781091     0.06440
O255        O  0.50952915  0.63029994  0.96441726    -0.71430
O256        O  0.49024659  0.63050606  0.07287520    -0.71650
O257        O  0.44580461  0.63026137  0.00912889    -0.71510
O258        O  0.55392654  0.63058788  0.02815118    -0.71520
O259        O  0.55753216  0.69337856  0.01530285    -0.71480
O260        O  0.44220710  0.69312192  0.02182599    -0.71500
O261        O  0.50303619  0.69336446  0.07624376    -0.71440
O262        O  0.49669906  0.69312070  0.96088843    -0.71630
V263        V  0.49988269  0.63179873  0.01863692     1.35240
V264        V  0.49985703  0.69300749  0.01856233     1.35170
C265        C  0.50271624  0.66020518  0.94319812     0.77800
C266        C  0.49706694  0.66051103  0.09402606     0.77860
C267        C  0.42455577  0.66022628  0.01566329     0.77730
C268        C  0.57519555  0.66056537  0.02159348     0.77690
C269        C  0.18823164  0.79226516  0.01960487     0.03470
C270        C  0.19927850  0.83304995  0.01933773    -0.12670
C271        C  0.17001386  0.86252328  0.01865410     0.00980
C272        C  0.13033609  0.85052732  0.01676324    -0.11200
C273        C  0.11825724  0.81089326  0.01953998     0.03470
C274        C  0.14749730  0.78149496  0.02077704    -0.10620
H275        H  0.23021609  0.84163727  0.01947507     0.09060
H276        H  0.10779332  0.87309092  0.01348064     0.06590
H277        H  0.13872349  0.75068257  0.02322343     0.06440
C278        C  0.31088496  0.67152640  0.01960334     0.03470
C279        C  0.35154513  0.68244628  0.01758736    -0.12670
C280        C  0.38090282  0.65314839  0.01787464     0.00980
C281        C  0.36900333  0.61342888  0.02048108    -0.11200
C282        C  0.32928151  0.60132593  0.02160206     0.03470
C283        C  0.29994636  0.63074321  0.02098111    -0.10620
H284        H  0.36015114  0.71330297  0.01509094     0.09060
H285        H  0.39177273  0.59091470  0.02145322     0.06590
H286        H  0.26902533  0.62216778  0.02233003     0.06440
C287        C  0.99650009  0.79196016  0.20899454     0.03470
C288        C  0.99694703  0.83270871  0.21988899    -0.12670
C289        C  0.99878694  0.86196582  0.19049535     0.00980
C290        C  0.00169183  0.84974916  0.15092169    -0.11200
C291        C  0.99869565  0.81008881  0.13891817     0.03470
C292        C  0.99674275  0.78080790  0.16831805    -0.10620
H293        H  0.99545030  0.84134950  0.25081494     0.09060
H294        H  0.00593533  0.87219855  0.12837466     0.06590
H295        H  0.99578144  0.74982149  0.15980674     0.06440
C296        C  0.99887498  0.67149802  0.33124319     0.03470
C297        C  0.99871868  0.63083394  0.32001699    -0.12670
C298        C  0.00076297  0.60133437  0.34913936     0.00980
C299        C  0.00383817  0.61325650  0.38882770    -0.11200
C300        C  0.00228063  0.65290635  0.40119349     0.03470
C301        C  0.99973396  0.68233235  0.37200235    -0.10620
H302        H  0.99726295  0.62242385  0.28903968     0.09060
H303        H  0.00687732  0.59052230  0.41118132     0.06590
H304        H  0.99847638  0.71325654  0.38071690     0.06440
O305        O  0.05693936  0.77102429  0.01635396    -0.71430
O306        O  0.94167810  0.77046999  0.02278306    -0.71650
O307        O  0.99659699  0.77102689  0.96178593    -0.71510
O308        O  0.00228005  0.77048266  0.07722387    -0.71520
O309        O  0.99080744  0.83358471  0.07424293    -0.71480
O310        O  0.00747020  0.83418758  0.96555754    -0.71500
O311        O  0.94478312  0.83367339  0.01187686    -0.71440
O312        O  0.05344423  0.83411701  0.02796360    -0.71630
V313        V  0.99933880  0.77109544  0.01953061     1.35240
V314        V  0.99911335  0.83241825  0.01989364     1.35170
C315        C  0.07460765  0.80402041  0.02174870     0.77800
C316        C  0.92378613  0.80338900  0.01787507     0.77860
C317        C  0.00218479  0.80405381  0.94419004     0.77730
C318        C  0.99687257  0.80334892  0.09518571     0.77690
C319        C  0.18894376  0.67055291  0.52075600     0.03470
C320        C  0.19950737  0.62975012  0.51932248    -0.12670
C321        C  0.16991624  0.60068093  0.51740087     0.00980
C322        C  0.13039720  0.61313782  0.51539411    -0.11200
C323        C  0.11870870  0.65279990  0.51927782     0.03470
C324        C  0.14833711  0.68186361  0.52127705    -0.10620
H325        H  0.23031281  0.62080622  0.51926487     0.09060
H326        H  0.10762262  0.59089890  0.51134196     0.06590
H327        H  0.14007890  0.71283515  0.52369477     0.06440
C328        C  0.31030323  0.79239067  0.51951484     0.03470
C329        C  0.29937184  0.83309043  0.52045802    -0.12670
C330        C  0.32859514  0.86248315  0.51868151     0.00980
C331        C  0.36816589  0.85057307  0.51518489    -0.11200
C332        C  0.38036198  0.81090625  0.51734123     0.03470
C333        C  0.35102976  0.78145649  0.51895127    -0.10620
H334        H  0.26855364  0.84167395  0.52308374     0.09060
H335        H  0.39049894  0.87330417  0.51124103     0.06590
H336        H  0.35962224  0.75049779  0.51946512     0.06440
O337        O  0.94514561  0.62962198  0.51328622    -0.71430
O338        O  0.05391869  0.62965064  0.52827612    -0.71650
O339        O  0.99169065  0.63002809  0.57518808    -0.71510
O340        O  0.00729956  0.62941606  0.46634957    -0.71520
O341        O  0.99700380  0.69265473  0.46276022    -0.71480
O342        O  0.00256565  0.69324681  0.57818856    -0.71500
O343        O  0.05732276  0.69281630  0.51722445    -0.71440
O344        O  0.94191075  0.69290190  0.52373099    -0.71630
V345        V  0.99950498  0.63118556  0.52076837     1.35240
V346        V  0.99964101  0.69253501  0.52048907     1.35170
C347        C  0.92407790  0.65984704  0.51909376     0.77800
C348        C  0.07505388  0.65979425  0.52207696     0.77860
C349        C  0.99750164  0.66035751  0.59614382     0.77730
C350        C  0.00251427  0.65965305  0.44506731     0.77690
O351        O  0.44213848  0.77127940  0.51486673    -0.71430
O352        O  0.55765310  0.77163975  0.52013740    -0.71650
O353        O  0.49684143  0.77078599  0.57536894    -0.71510
O354        O  0.50283591  0.77196681  0.45992552    -0.71520
O355        O  0.49438478  0.83551724  0.46363538    -0.71480
O356        O  0.50507065  0.83439893  0.57286562    -0.71500
O357        O  0.55421354  0.83525662  0.51261191    -0.71440
O358        O  0.44508629  0.83479569  0.52380502    -0.71630
V359        V  0.49987569  0.77189578  0.51760618     1.35240
V360        V  0.49969382  0.83336981  0.51824037     1.35170
C361        C  0.42416764  0.80432275  0.51887210     0.77800
C362        C  0.57540021  0.80486356  0.51638517     0.77860
C363        C  0.50023863  0.80375706  0.59358728     0.77730
C364        C  0.49915859  0.80522172  0.44237376     0.77690
C365        C  0.49968348  0.17228487  0.33085705     0.03470
C366        C  0.49951291  0.18341519  0.37146148    -0.12670
C367        C  0.50076765  0.15403103  0.40080593     0.00980
C368        C  0.50408412  0.11442491  0.38868048    -0.11200
C369        C  0.50311250  0.10235600  0.34891346     0.03470
C370        C  0.50055649  0.13172037  0.31966426    -0.10620
H371        H  0.49783912  0.21441555  0.37984578     0.09060
H372        H  0.50689626  0.09196121  0.41135291     0.06590
H373        H  0.49997869  0.12338819  0.28862855     0.06440
C374        C  0.49775604  0.29245358  0.20947674     0.03470
C375        C  0.49916837  0.33314687  0.22027663    -0.12670
C376        C  0.50035628  0.36226131  0.19067948     0.00980
C377        C  0.50116168  0.34970597  0.15103397    -0.11200
C378        C  0.49794695  0.30999445  0.13932985     0.03470
C379        C  0.49657858  0.28093578  0.16898340    -0.10620
H380        H  0.49923166  0.34177776  0.25123632     0.09060
H381        H  0.50418452  0.37185723  0.12806714     0.06590
H382        H  0.49481258  0.24985732  0.16091680     0.06440
O383        O  0.49136602  0.92849817  0.37085665    -0.71430
O384        O  0.50832305  0.03711359  0.37195524    -0.71650
O385        O  0.44562093  0.99139165  0.37099697    -0.71510
O386        O  0.55409842  0.97442131  0.37187896    -0.71520
O387        O  0.55830098  0.98571920  0.30883546    -0.71480
O388        O  0.44279001  0.98116193  0.30775835    -0.71500
O389        O  0.49846545  0.04113505  0.30873861    -0.71440
O390        O  0.50302826  0.92563898  0.30776115    -0.71630
V391        V  0.49983557  0.98285692  0.36992095     1.35240
V392        V  0.50059294  0.98338582  0.30862889     1.35170
C393        C  0.49763553  0.90760902  0.34055126     0.77800
C394        C  0.50371004  0.05858508  0.34185704     0.77860
C395        C  0.42469303  0.98641569  0.34062402     0.77730
C396        C  0.57562951  0.98020078  0.34190951     0.77690
O397        O  0.48965490  0.33312093  0.07446139    -0.71430
O398        O  0.50890099  0.33339721  0.96607552    -0.71650
O399        O  0.44516278  0.33356300  0.01094952    -0.71510
O400        O  0.55342863  0.33331452  0.02958704    -0.71520
O401        O  0.55673389  0.27043195  0.01677944    -0.71480
O402        O  0.44149664  0.27062259  0.02324473    -0.71500
O403        O  0.49631518  0.27052711  0.96238485    -0.71440
O404        O  0.50203676  0.27022132  0.07775567    -0.71630
V405        V  0.49928048  0.33195361  0.02027232     1.35240
V406        V  0.49913042  0.27071553  0.02005919     1.35170
C407        C  0.49598753  0.30303663  0.09559278     0.77800
C408        C  0.50266891  0.30337665  0.94475642     0.77860
C409        C  0.42390926  0.30357933  0.01745780     0.77730
C410        C  0.57449423  0.30331678  0.02261979     0.77690
C411        C  0.18876733  0.29163612  0.51917953     0.03470
C412        C  0.19983557  0.33238390  0.51996919    -0.12670
C413        C  0.17055111  0.36169026  0.52301806     0.00980
C414        C  0.13106853  0.34943876  0.52674676    -0.11200
C415        C  0.11891675  0.31007071  0.52180848     0.03470
C416        C  0.14807979  0.28080191  0.51850715    -0.10620
H417        H  0.23074060  0.34101429  0.51863862     0.09060
H418        H  0.10861170  0.37168428  0.53234759     0.06590
H419        H  0.13934875  0.25006346  0.51506669     0.06440
C420        C  0.31067887  0.17084546  0.51770268     0.03470
C421        C  0.35126128  0.18179637  0.51961008    -0.12670
C422        C  0.38056251  0.15250262  0.51913258     0.00980
C423        C  0.36869913  0.11278358  0.51617923    -0.11200
C424        C  0.32898954  0.10073078  0.51530273     0.03470
C425        C  0.29967601  0.13012436  0.51633010    -0.10620
H426        H  0.35980999  0.21267108  0.52216994     0.09060
H427        H  0.39143184  0.09022457  0.51498682     0.06590
H428        H  0.26873472  0.12160222  0.51527998     0.06440
O429        O  0.94546006  0.33446126  0.52476716    -0.71430
O430        O  0.05460517  0.33411260  0.51364293    -0.71650
O431        O  0.99454425  0.33404907  0.46472568    -0.71510
O432        O  0.00545410  0.33452703  0.57371578    -0.71520
O433        O  0.99704924  0.27100001  0.57723225    -0.71480
O434        O  0.00257691  0.27046454  0.46161175    -0.71500
O435        O  0.05733224  0.27053134  0.52230291    -0.71440
O436        O  0.94214151  0.27084281  0.51665402    -0.71630
V437        V  0.00000467  0.33266539  0.51920707     1.35240
V438        V  0.99976232  0.27118235  0.51942553     1.35170
C439        C  0.92441265  0.30403477  0.52013943     0.77800
C440        C  0.07532829  0.30359571  0.51884228     0.77860
C441        C  0.99882760  0.30354776  0.44369986     0.77730
C442        C  0.00124186  0.30418392  0.59494117     0.77690
O443        O  0.28906034  0.98438573  0.46025108    -0.71430
O444        O  0.28878961  0.97877567  0.57547129    -0.71650
O445        O  0.28911796  0.03934408  0.52051877    -0.71510
O446        O  0.28887317  0.92387401  0.51498381    -0.71520
O447        O  0.35164204  0.92730650  0.52759129    -0.71480
O448        O  0.35192537  0.03556997  0.50790474    -0.71500
O449        O  0.35163899  0.99129637  0.57191843    -0.71440
O450        O  0.35178710  0.97151419  0.46368128    -0.71630
V451        V  0.28921738  0.98158589  0.51784827     1.35240
V452        V  0.35036692  0.98144171  0.51778914     1.35170
C453        C  0.32189026  0.97816749  0.44253080     0.77800
C454        C  0.32156972  0.98480462  0.59312795     0.77860
C455        C  0.32197070  0.05694890  0.51401433     0.77730
C456        C  0.32166659  0.90614030  0.52098076     0.77690
C457        C  0.18793944  0.17136593  0.01847112     0.03470
C458        C  0.14729676  0.18221513  0.02042745    -0.12670
C459        C  0.11798667  0.15283314  0.02049576     0.00980
C460        C  0.12992656  0.11311433  0.01825811    -0.11200
C461        C  0.16964936  0.10116099  0.01675891     0.03470
C462        C  0.19894275  0.13064148  0.01716324    -0.10620
H463        H  0.13868498  0.21308298  0.02265604     0.09060
H464        H  0.10722249  0.09047389  0.01780558     0.06590
H465        H  0.22987816  0.12216908  0.01574501     0.06440
C466        C  0.31030402  0.29224225  0.01946119     0.03470
C467        C  0.35095983  0.28133698  0.01830659    -0.12670
C468        C  0.38031366  0.31061988  0.01976154     0.00980
C469        C  0.36841237  0.35028464  0.02289741    -0.11200
C470        C  0.32876679  0.36241067  0.02104504     0.03470
C471        C  0.29938822  0.33302072  0.01997587    -0.10620
H472        H  0.35956845  0.25049555  0.01571081     0.09060
H473        H  0.39107416  0.37274660  0.02637880     0.06590
H474        H  0.26847331  0.34164250  0.01973277     0.06440
C475        C  0.18952764  0.98173419  0.20707866     0.03470
C476        C  0.14884963  0.98008037  0.21838761    -0.12670
C477        C  0.11935710  0.97818409  0.18926721     0.00980
C478        C  0.13128787  0.97794409  0.14944072    -0.11200
C479        C  0.17071669  0.98189360  0.13717745     0.03470
C480        C  0.20012561  0.98354464  0.16626671    -0.10620
H481        H  0.14040856  0.97943680  0.24940532     0.09060
H482        H  0.10885033  0.97524249  0.12680719     0.06590
H483        H  0.23080335  0.98681995  0.15733008     0.06440
C484        C  0.31070055  0.98225698  0.32893125     0.03470
C485        C  0.35148558  0.98398092  0.31794332    -0.12670
C486        C  0.38079565  0.98509055  0.34732370     0.00980
C487        C  0.36854423  0.98422968  0.38704999    -0.11200
C488        C  0.32895730  0.98070700  0.39892031     0.03470
C489        C  0.29977359  0.97991606  0.36960890    -0.10620
H490        H  0.36012881  0.98525566  0.28700200     0.09060
H491        H  0.39083425  0.98596418  0.40991533     0.06590
H492        H  0.26899687  0.97684534  0.37827524     0.06440
C493        C  0.99780562  0.17056197  0.20815148     0.03470
C494        C  0.00005686  0.12985719  0.21895695    -0.12670
C495        C  0.00201958  0.10056305  0.18949262     0.00980
C496        C  0.00131708  0.11269851  0.14977567    -0.11200
C497        C  0.99787198  0.15237381  0.13804680     0.03470
C498        C  0.99681758  0.18162083  0.16752575    -0.10620
H499        H  0.00028813  0.12125574  0.24990425     0.09060
H500        H  0.00323783  0.09028404  0.12688720     0.06590
H501        H  0.99537526  0.21258419  0.15906388     0.06440
C502        C  0.99883159  0.29197752  0.32977187     0.03470
C503        C  0.99899816  0.28094269  0.37046031    -0.12670
C504        C  0.00006122  0.31025859  0.39985050     0.00980
C505        C  0.00178379  0.34996009  0.38776409    -0.11200
C506        C  0.00032974  0.36216130  0.34808325     0.03470
C507        C  0.99870337  0.33272467  0.31874161    -0.10620
H508        H  0.99782162  0.24996962  0.37896149     0.09060
H509        H  0.00402555  0.37246696  0.41045785     0.06590
H510        H  0.99814691  0.34119913  0.28776620     0.06440
O511        O  0.05794419  0.98318054  0.22944390    -0.71430
O512        O  0.94238069  0.97965452  0.23001146    -0.71650
O513        O  0.00214296  0.92366854  0.23001742    -0.71510
O514        O  0.99831190  0.03920260  0.22946991    -0.71520
O515        O  0.00878147  0.03539189  0.16624459    -0.71480
O516        O  0.99145197  0.92674713  0.16685715    -0.71500
O517        O  0.94591971  0.98976626  0.16677171    -0.71440
O518        O  0.05424448  0.97232556  0.16634537    -0.71630
V519        V  0.00017343  0.98142583  0.22936962     1.35240
V520        V  0.00009450  0.98107106  0.16806662     1.35170
C521        C  0.07556543  0.97739126  0.19642231     0.77800
C522        C  0.92466889  0.98504324  0.19711146     0.77860
C523        C  0.99705333  0.90574694  0.19712945     0.77730
C524        C  0.00359359  0.05677367  0.19640464     0.77690
O525        O  0.21006153  0.97886946  0.07539092    -0.71430
O526        O  0.20947685  0.98507440  0.96023970    -0.71650
O527        O  0.20957912  0.03972859  0.02077130    -0.71510
O528        O  0.20975106  0.92417131  0.01462259    -0.71520
O529        O  0.14686526  0.92744419  0.02703482    -0.71480
O530        O  0.14660875  0.03603960  0.00950591    -0.71500
O531        O  0.14654049  0.97299763  0.96403720    -0.71440
O532        O  0.14708559  0.99062884  0.07262147    -0.71630
V533        V  0.20940700  0.98195007  0.01778078     1.35240
V534        V  0.14820346  0.98177590  0.01831154     1.35170
C535        C  0.17729704  0.98441171  0.09345812     0.77800
C536        C  0.17655555  0.97946074  0.94275309     0.77860
C537        C  0.17665586  0.05737545  0.01515706     0.77730
C538        C  0.17690696  0.90631865  0.02047823     0.77690
O539        O  0.05673943  0.19270959  0.01629957    -0.71430
O540        O  0.94147663  0.19257726  0.02233218    -0.71650
O541        O  0.00193103  0.19241822  0.07692570    -0.71510
O542        O  0.99616477  0.19300610  0.96164681    -0.71520
O543        O  0.00917532  0.13020628  0.96480104    -0.71480
O544        O  0.98900544  0.12960137  0.07308116    -0.71500
O545        O  0.94514117  0.12984507  0.00897805    -0.71440
O546        O  0.05307668  0.12984946  0.02888878    -0.71630
V547        V  0.99909046  0.19244898  0.01929504     1.35240
V548        V  0.99910388  0.13124459  0.01894091     1.35170
C549        C  0.07435103  0.15984649  0.02251720     0.77800
C550        C  0.92388700  0.15972804  0.01581910     0.77860
C551        C  0.99564762  0.15949531  0.09444372     0.77730
C552        C  0.00235759  0.16024460  0.94376131     0.77690
C553        C  0.18894242  0.48061957  0.33049139     0.03470
C554        C  0.19950566  0.48034320  0.37121463    -0.12670
C555        C  0.16996618  0.47822333  0.40034592     0.00980
C556        C  0.13049914  0.47547007  0.38803452    -0.11200
C557        C  0.11871737  0.47922957  0.34843525     0.03470
C558        C  0.14835592  0.48125591  0.31924632    -0.10620
H559        H  0.23030103  0.48217634  0.37997432     0.09060
H560        H  0.10785144  0.47114848  0.41040859     0.06590
H561        H  0.14013985  0.48295276  0.28827085     0.06440
C562        C  0.31137153  0.48243291  0.20989453     0.03470
C563        C  0.35209473  0.48270529  0.22068479    -0.12670
C564        C  0.38136496  0.48485181  0.19109105     0.00980
C565        C  0.36900028  0.48727709  0.15154908    -0.11200
C566        C  0.32949509  0.48345381  0.13986388     0.03470
C567        C  0.30032662  0.48169234  0.16933683    -0.10620
H568        H  0.36066208  0.48180790  0.25159685     0.09060
H569        H  0.39112638  0.49145607  0.12863583     0.06590
H570        H  0.26945311  0.47929112  0.16098004     0.06440
O571        O  0.94461043  0.47726908  0.37235207    -0.71430
O572        O  0.05393742  0.48636336  0.37225857    -0.71650
O573        O  0.99465132  0.53643031  0.37256465    -0.71510
O574        O  0.00383536  0.42720224  0.37202459    -0.71520
O575        O  0.99691139  0.42407486  0.30839885    -0.71480
O576        O  0.00234088  0.53977420  0.30894306    -0.71500
O577        O  0.05721713  0.47898914  0.30859403    -0.71440
O578        O  0.94178567  0.48492070  0.30873445    -0.71630
V579        V  0.99925759  0.48180942  0.37063602     1.35240
V580        V  0.99950936  0.48195356  0.30916722     1.35170
C581        C  0.92377542  0.48189202  0.34190224     0.77800
C582        C  0.07499773  0.48184277  0.34175154     0.77860
C583        C  0.99898666  0.55754764  0.34218301     0.77730
C584        C  0.00049890  0.40613028  0.34146322     0.77690
O585        O  0.28934665  0.53969139  0.01811014    -0.71430
O586        O  0.28914427  0.42412033  0.02476650    -0.71650
O587        O  0.28955704  0.48547900  0.07887954    -0.71510
O588        O  0.28863843  0.47831160  0.96377361    -0.71520
O589        O  0.35181436  0.48920965  0.96615057    -0.71480
O590        O  0.35263597  0.47433152  0.07506758    -0.71500
O591        O  0.35218473  0.42727613  0.01312619    -0.71440
O592        O  0.35251205  0.53622998  0.02821386    -0.71630
V593        V  0.28953905  0.48189170  0.02135356     1.35240
V594        V  0.35080512  0.48177059  0.02063652     1.35170
C595        C  0.32234694  0.55746722  0.02309894     0.77800
C596        C  0.32201940  0.40622028  0.01935598     0.77860
C597        C  0.32258134  0.48060918  0.09634667     0.77730
C598        C  0.32141950  0.48307310  0.94552971     0.77690
O599        O  0.14632475  0.42624875  0.51657764    -0.71430
O600        O  0.14588158  0.53586679  0.52321996    -0.71650
O601        O  0.14587913  0.48432314  0.46513009    -0.71510
O602        O  0.14637657  0.47775160  0.57468242    -0.71520
O603        O  0.21006146  0.48495003  0.57704741    -0.71480
O604        O  0.20959457  0.47772967  0.46179947    -0.71500
O605        O  0.20955208  0.53901459  0.51593143    -0.71440
O606        O  0.21004231  0.42360684  0.52302618    -0.71630
V607        V  0.14777362  0.48104955  0.51988945     1.35240
V608        V  0.20925880  0.48131857  0.51943137     1.35170
C609        C  0.17696031  0.40550237  0.52072803     0.77800
C610        C  0.17638804  0.55686266  0.51890259     0.77860
C611        C  0.17641703  0.48023988  0.44407381     0.77730
C612        C  0.17703429  0.48222886  0.59527093     0.77690
O613        O  0.44174123  0.19268903  0.51663132    -0.71430
O614        O  0.55687881  0.19317764  0.52391407    -0.71650
O615        O  0.50321662  0.19342989  0.46264593    -0.71510
O616        O  0.49536079  0.19265944  0.57790884    -0.71520
O617        O  0.50714387  0.12961395  0.57432666    -0.71480
O618        O  0.49178214  0.13029535  0.46544842    -0.71500
O619        O  0.55377893  0.13014051  0.51194256    -0.71440
O620        O  0.44521471  0.12956889  0.52787078    -0.71630
V621        V  0.49929940  0.19266683  0.52029122     1.35240
V622        V  0.49948765  0.13135790  0.51989814     1.35170
C623        C  0.42408634  0.15961923  0.52176994     0.77800
C624        C  0.57473919  0.16031711  0.51830991     0.77860
C625        C  0.49811191  0.16060326  0.44457486     0.77730
C626        C  0.50057255  0.15965092  0.59554180     0.77690
O627        O  0.44328427  0.48379873  0.23036464    -0.71430
O628        O  0.55876703  0.48039705  0.22947321    -0.71650
O629        O  0.50256853  0.54004834  0.22935992    -0.71510
O630        O  0.49975388  0.42430109  0.23025314    -0.71520
O631        O  0.50079711  0.42701392  0.16620566    -0.71480
O632        O  0.50087949  0.53650392  0.16534756    -0.71500
O633        O  0.55556678  0.48163502  0.16542832    -0.71440
O634        O  0.44605869  0.48176259  0.16631722    -0.71630
V635        V  0.50106161  0.48216991  0.22923223     1.35240
V636        V  0.50081736  0.48174602  0.16761267     1.35170
C637        C  0.42524205  0.48346691  0.19724124     0.77800
C638        C  0.57654068  0.47998675  0.19607803     0.77860
C639        C  0.50207096  0.55770775  0.19593646     0.77730
C640        C  0.50037427  0.40619784  0.19705255     0.77690
C641        C  0.69030085  0.48185878  0.20727446     0.03470
C642        C  0.70100617  0.48236236  0.16641600    -0.12670
C643        C  0.67166270  0.47875006  0.13737964     0.00980
C644        C  0.63243847  0.47372033  0.14987566    -0.11200
C645        C  0.62028516  0.47782516  0.18938993     0.03470
C646        C  0.64959898  0.48114598  0.21849547    -0.10620
H647        H  0.73165357  0.48587730  0.15745468     0.09060
H648        H  0.61020955  0.46781539  0.12759371     0.06590
H649        H  0.64096839  0.48252950  0.24943776     0.06440
C650        C  0.80994754  0.48175604  0.33050248     0.03470
C651        C  0.85069574  0.48220913  0.31940621    -0.12670
C652        C  0.88000711  0.48410458  0.34864266     0.00980
C653        C  0.86783644  0.48708876  0.38826896    -0.11200
C654        C  0.82837611  0.48313146  0.40051140     0.03470
C655        C  0.79908246  0.48081614  0.37130227    -0.10620
H656        H  0.85937351  0.48147677  0.28845504     0.09060
H657        H  0.89018391  0.49170274  0.41073552     0.06590
H658        H  0.76833207  0.47784790  0.38010316     0.06440
O659        O  0.70909346  0.48511953  0.95990038    -0.71430
O660        O  0.71051208  0.47817781  0.07509849    -0.71650
O661        O  0.70943466  0.42384463  0.01408667    -0.71510
O662        O  0.70993027  0.53945939  0.02071057    -0.71520
O663        O  0.64636212  0.53638213  0.01344797    -0.71480
O664        O  0.64604938  0.42703772  0.02347799    -0.71500
O665        O  0.64700123  0.48683127  0.07321068    -0.71440
O666        O  0.64558557  0.47678603  0.96378751    -0.71630
V667        V  0.70925149  0.48164472  0.01748038     1.35240
V668        V  0.64785202  0.48175706  0.01847627     1.35170
C669        C  0.67584146  0.48178348  0.94247159     0.77800
C670        C  0.67770273  0.48163284  0.09358214     0.77860
C671        C  0.67634924  0.40597186  0.01825052     0.77730
C672        C  0.67687794  0.55741577  0.01724913     0.77690
C673        C  0.81033077  0.17087961  0.01942508     0.03470
C674        C  0.85096427  0.18181386  0.01743598    -0.12670
C675        C  0.88031492  0.15257360  0.01806091     0.00980
C676        C  0.86851100  0.11286070  0.02091733    -0.11200
C677        C  0.82882546  0.10065992  0.02146762     0.03470
C678        C  0.79943680  0.13005160  0.02067178    -0.10620
H679        H  0.85958653  0.21264514  0.01471615     0.09060
H680        H  0.89134909  0.09044461  0.02240875     0.06590
H681        H  0.76852798  0.12141152  0.02178279     0.06440
C682        C  0.68802629  0.29192460  0.01920118     0.03470
C683        C  0.69896779  0.33273030  0.01803249    -0.12670
C684        C  0.66959698  0.36210223  0.01685072     0.00980
C685        C  0.62992979  0.34988446  0.01551212    -0.11200
C686        C  0.61804732  0.31030227  0.01957579     0.03470
C687        C  0.64736800  0.28106222  0.02116066    -0.10620
H688        H  0.72988441  0.34139538  0.01779629     0.09060
H689        H  0.60719916  0.37220365  0.01186425     0.06590
H690        H  0.63871767  0.25029450  0.02446841     0.06440
C691        C  0.81083240  0.98052834  0.20910925     0.03470
C692        C  0.85150296  0.98220224  0.21992544    -0.12670
C693        C  0.88083629  0.98434556  0.19044957     0.00980
C694        C  0.86868115  0.98472504  0.15076140    -0.11200
C695        C  0.82908541  0.98147087  0.13898035     0.03470
C696        C  0.79983409  0.98010821  0.16847926    -0.10620
H697        H  0.86001864  0.98185000  0.25086696     0.09060
H698        H  0.89106046  0.98715631  0.12787321     0.06590
H699        H  0.76892896  0.97895351  0.16002627     0.06440
C700        C  0.68945592  0.98127893  0.33095342     0.03470
C701        C  0.64888966  0.98095173  0.31980577    -0.12670
C702        C  0.61929577  0.98156575  0.34905390     0.00980
C703        C  0.63103409  0.98320969  0.38883780    -0.11200
C704        C  0.67064959  0.98138363  0.40095893     0.03470
C705        C  0.70015343  0.98090248  0.37165655    -0.10620
H706        H  0.64063946  0.98043753  0.28879084     0.09060
H707        H  0.60831459  0.98583656  0.41140709     0.06590
H708        H  0.73101589  0.97962100  0.38025951     0.06440
O709        O  0.78862033  0.97799732  0.96238520    -0.71430
O710        O  0.78914897  0.98420701  0.07777891    -0.71650
O711        O  0.78903729  0.03897616  0.01736820    -0.71510
O712        O  0.78876207  0.92341210  0.02309945    -0.71520
O713        O  0.85189724  0.92655036  0.01199042    -0.71480
O714        O  0.85223916  0.03549761  0.02720782    -0.71500
O715        O  0.85227368  0.97348989  0.07398935    -0.71440
O716        O  0.85182438  0.98848374  0.96510625    -0.71630
V717        V  0.78927352  0.98115843  0.02011006     1.35240
V718        V  0.85055111  0.98102570  0.01956801     1.35170
C719        C  0.82153226  0.98261795  0.94427697     0.77800
C720        C  0.82216315  0.97927074  0.09531372     0.77860
C721        C  0.82201443  0.05675055  0.02244123     0.77730
C722        C  0.82165466  0.90551978  0.01793952     0.77690
C723        C  0.68829132  0.17207713  0.51825146     0.03470
C724        C  0.64763293  0.18300639  0.51894246    -0.12670
C725        C  0.61837259  0.15357472  0.51998642     0.00980
C726        C  0.63042948  0.11389229  0.52185410    -0.11200
C727        C  0.67003030  0.10198097  0.51905523     0.03470
C728        C  0.69930194  0.13139567  0.51786189    -0.10620
H729        H  0.63897157  0.21393529  0.51901737     0.09060
H730        H  0.60795541  0.09121800  0.52528334     0.06590
H731        H  0.73023039  0.12291507  0.51623233     0.06440
C732        C  0.81080910  0.29228947  0.52054312     0.03470
C733        C  0.85147245  0.28133897  0.51991652    -0.12670
C734        C  0.88074718  0.31073972  0.51832455     0.00980
C735        C  0.86866439  0.35036640  0.51575548    -0.11200
C736        C  0.82910652  0.36238366  0.51884869     0.03470
C737        C  0.79981929  0.33299931  0.52063826    -0.10620
H738        H  0.86013216  0.25041280  0.52018127     0.09060
H739        H  0.89111791  0.37295975  0.51176933     0.06590
H740        H  0.76891081  0.34151621  0.52245241     0.06440
O741        O  0.71040036  0.92536485  0.51763856    -0.71430
O742        O  0.70988504  0.04078220  0.52266006    -0.71650
O743        O  0.70991213  0.98101288  0.57794528    -0.71510
O744        O  0.71020774  0.98555998  0.46239970    -0.71520
O745        O  0.64729083  0.97347939  0.46591818    -0.71480
O746        O  0.64693510  0.99221488  0.57425168    -0.71500
O747        O  0.64697171  0.03701648  0.51090282    -0.71440
O748        O  0.64741351  0.92853991  0.52945867    -0.71630
V749        V  0.70979175  0.98312151  0.52014794     1.35240
V750        V  0.64859348  0.98278507  0.52013793     1.35170
C751        C  0.67758259  0.90745954  0.52332982     0.77800
C752        C  0.67696104  0.05832998  0.51704533     0.77860
C753        C  0.67698626  0.98719394  0.59559454     0.77730
C754        C  0.67738833  0.97969251  0.44469556     0.77690
O755        O  0.78945244  0.42392695  0.51646489    -0.71430
O756        O  0.78955567  0.53922596  0.52381970    -0.71650
O757        O  0.78906708  0.48526605  0.46250412    -0.71510
O758        O  0.79000816  0.47795479  0.57777932    -0.71520
O759        O  0.85312005  0.48891200  0.57393199    -0.71480
O760        O  0.85220330  0.47429908  0.46492523    -0.71500
O761        O  0.85262121  0.53620537  0.51216338    -0.71440
O762        O  0.85265068  0.42715908  0.52670235    -0.71630
V763        V  0.78989502  0.48158531  0.52014121     1.35240
V764        V  0.85116982  0.48163977  0.51943703     1.35170
C765        C  0.82240179  0.40610110  0.52105147     0.77800
C766        C  0.82241644  0.55715920  0.51852390     0.77860
C767        C  0.82186609  0.48043219  0.44426354     0.77730
C768        C  0.82305698  0.48295808  0.59528367     0.77690
C769        C  0.71947451  0.20303364  0.51849619    -0.05120
C770        C  0.75054669  0.20039326  0.54595310    -0.32550
C771        C  0.78050125  0.22914550  0.54701408     0.36700
C772        C  0.77960739  0.26133005  0.52038103    -0.05480
C773        C  0.74854667  0.26394195  0.49290244    -0.32450
C774        C  0.71860468  0.23518374  0.49183355     0.36610
H775        H  0.75131652  0.17617939  0.56706967     0.16980
O776        O  0.80943442  0.22658524  0.57539368    -0.59950
H777        H  0.74778697  0.28812959  0.47175618     0.16990
O778        O  0.68971482  0.23768818  0.46340327    -0.60040
H779        H  0.67257882  0.26013629  0.47166727     0.43990
H780        H  0.82647718  0.20406181  0.56713654     0.43940
C781        C  0.72071187  0.98117427  0.29997037    -0.05120
C782        C  0.71984557  0.95243229  0.26982158    -0.32550
C783        C  0.74903403  0.95173020  0.24014957     0.36700
C784        C  0.77978525  0.98008339  0.24035873    -0.05480
C785        C  0.78061312  0.00882529  0.27052902    -0.32450
C786        C  0.75143817  0.00951358  0.30018476     0.36610
H787        H  0.69670188  0.93011350  0.26956242     0.16980
O788        O  0.74830754  0.92217024  0.21212827    -0.59950
H789        H  0.80365472  0.03125081  0.27075018     0.16990
O790        O  0.75209276  0.03911762  0.32816011    -0.60040
H791        H  0.77378701  0.03194363  0.34653143     0.43990
H792        H  0.72590791  0.92880298  0.19440262     0.43940
C793        C  0.77921181  0.20208838  0.01963968    -0.05120
C794        C  0.74600799  0.19803458  0.99499389    -0.32550
C795        C  0.71610254  0.22684066  0.99465349     0.36700
C796        C  0.71909106  0.26067236  0.01918434    -0.05480
C797        C  0.75228464  0.26472474  0.04384580    -0.32450
C798        C  0.78220326  0.23592430  0.04417466     0.36610
H799        H  0.74346933  0.17266720  0.97538815     0.16980
O800        O  0.68506562  0.22261797  0.96879008    -0.59950
H801        H  0.75482683  0.29009589  0.06344510     0.16990
O802        O  0.81326108  0.24017003  0.07000895    -0.60040
H803        H  0.82931466  0.26249592  0.05943727     0.43990
H804        H  0.66888353  0.20043589  0.97945934     0.43940
C805        C  0.72145547  0.48219061  0.23832566    -0.05120
C806        C  0.71761783  0.50743527  0.27128964    -0.32550
C807        C  0.74585570  0.50730975  0.30164990     0.36700
C808        C  0.77889697  0.48174925  0.29934274    -0.05480
C809        C  0.78272395  0.45651056  0.26638067    -0.32450
C810        C  0.75448078  0.45661180  0.23604546     0.36610
H811        H  0.69279726  0.52772435  0.27337054     0.16980
O812        O  0.74189252  0.53365803  0.33247565    -0.59950
H813        H  0.80750232  0.43616629  0.26432693     0.16990
O814        O  0.75836916  0.43013588  0.20531925    -0.60040
H815        H  0.78065521  0.44029392  0.18894506     0.43990
H816        H  0.71952133  0.52347109  0.34872009     0.43940
C817        C  0.28015703  0.48236047  0.24087539    -0.05120
C818        C  0.28095914  0.45373831  0.27103198    -0.32550
C819        C  0.25141040  0.45282995  0.30031384     0.36700
C820        C  0.22044156  0.48091275  0.29975371    -0.05480
C821        C  0.21968267  0.50956262  0.26959999    -0.32450
C822        C  0.24918236  0.51041678  0.24028261     0.36610
H823        H  0.30422883  0.43159649  0.27150932     0.16980
O824        O  0.25195379  0.42324791  0.32825850    -0.59950
H825        H  0.19640163  0.53169013  0.26906252     0.16990
O826        O  0.24849898  0.53982227  0.21215259    -0.60040
H827        H  0.22695299  0.53235095  0.19368673     0.43990
H828        H  0.27363007  0.43041970  0.34668447     0.43940
C829        C  0.99737437  0.20158313  0.23939165    -0.05120
C830        C  0.02579543  0.20049302  0.26967789    -0.32550
C831        C  0.02670988  0.22984235  0.29903398     0.36700
C832        C  0.99864786  0.26081680  0.29873605    -0.05480
C833        C  0.97022182  0.26196042  0.26847293    -0.32450
C834        C  0.96925682  0.23254807  0.23912929     0.36610
H835        H  0.04789581  0.17718105  0.27013911     0.16980
O836        O  0.05563305  0.22836725  0.32747699    -0.59950
H837        H  0.94825724  0.28539891  0.26798205     0.16990
O838        O  0.94031461  0.23402686  0.21071350    -0.60040
H839        H  0.91864866  0.21691475  0.22090182     0.43990
H840        H  0.07738591  0.24533416  0.31722070     0.43940
C841        C  0.22089456  0.98189406  0.23795561    -0.05120
C842        C  0.21691662  0.00656506  0.27132473    -0.32550
C843        C  0.24572643  0.00692320  0.30115024     0.36700
C844        C  0.27951113  0.98242931  0.29788753    -0.05480
C845        C  0.28350204  0.95778426  0.26451375    -0.32450
C846        C  0.25466434  0.95738145  0.23471915     0.36610
H847        H  0.19156378  0.02610419  0.27410071     0.16980
O848        O  0.24152174  0.03271890  0.33241537    -0.59950
H849        H  0.30883173  0.93821012  0.26177392     0.16990
O850        O  0.25877179  0.93143170  0.20357314    -0.60040
H851        H  0.28085774  0.94211579  0.18725482     0.43990
H852        H  0.21934456  0.02198948  0.34858691     0.43940
C853        C  0.21904904  0.20252726  0.01843235    -0.05120
C854        C  0.25144412  0.19910537  0.04419725    -0.32550
C855        C  0.28135503  0.22793406  0.04477773     0.36700
C856        C  0.27919023  0.26105090  0.01930348    -0.05480
C857        C  0.24679340  0.26445228  0.99351284    -0.32450
C858        C  0.21684352  0.23564454  0.99298985     0.36610
H859        H  0.25330765  0.17422350  0.06444402     0.16980
O860        O  0.31154505  0.22449139  0.07172177    -0.59950
H861        H  0.24491971  0.28931012  0.97324330     0.16990
O862        O  0.18654243  0.23913185  0.96618247    -0.60040
H863        H  0.16991612  0.26133702  0.97604456     0.43990
H864        H  0.32816110  0.20220455  0.06202779     0.43940
C865        C  0.21968063  0.26039017  0.51864926    -0.05120
C866        C  0.25194877  0.26356080  0.49243365    -0.32550
C867        C  0.28183920  0.23475954  0.49189026     0.36700
C868        C  0.27965310  0.20193922  0.51773095    -0.05480
C869        C  0.24739186  0.19875529  0.54391924    -0.32450
C870        C  0.21756138  0.22758099  0.54453893     0.36610
H871        H  0.25379129  0.28824562  0.47193274     0.16980
O872        O  0.31210015  0.23796751  0.46475573    -0.59950
H873        H  0.24559281  0.17408838  0.56445311     0.16990
O874        O  0.18751185  0.22448530  0.57192702    -0.60040
H875        H  0.17057997  0.20235506  0.56250517     0.43990
H876        H  0.32893063  0.26008922  0.47438379     0.43940
C877        C  0.49919379  0.20315939  0.29994246    -0.05120
C878        C  0.46490232  0.20912592  0.27735536    -0.32550
C879        C  0.46401308  0.23843048  0.24794302     0.36700
C880        C  0.49781907  0.26183678  0.24066793    -0.05480
C881        C  0.53211450  0.25582863  0.26324403    -0.32450
C882        C  0.53303181  0.22648934  0.29258436     0.36610
H883        H  0.43873271  0.19125314  0.28282013     0.16980
O884        O  0.42996991  0.24419044  0.22662064    -0.59950
H885        H  0.55834683  0.27359509  0.25770539     0.16990
O886        O  0.56717954  0.22054828  0.31370261    -0.60040
H887        H  0.58162495  0.19938596  0.29917773     0.43990
H888        H  0.41556344  0.26561640  0.24078041     0.43940
C889        C  0.27911624  0.76130865  0.51977382    -0.05120
C890        C  0.28178105  0.72936453  0.54634498    -0.32550
C891        C  0.25274093  0.69960086  0.54707830     0.36700
C892        C  0.22021200  0.70155684  0.52101946    -0.05480
C893        C  0.21760151  0.73348052  0.49443075    -0.32450
C894        C  0.24662270  0.76318979  0.49366176     0.36610
H895        H  0.30621321  0.72773948  0.56703990     0.16980
O896        O  0.25540467  0.66977483  0.57462671    -0.59950
H897        H  0.19320995  0.73510017  0.47367851     0.16990
O898        O  0.24400464  0.79289487  0.46596366    -0.60040
H899        H  0.22187356  0.81005083  0.47501548     0.43990
H900        H  0.27776275  0.65286849  0.56565824     0.43940
C901        C  0.99807986  0.70265890  0.30025250    -0.05120
C902        C  0.96977128  0.70082996  0.26987108    -0.32550
C903        C  0.96866462  0.72983335  0.24018556     0.36700
C904        C  0.99639762  0.76114383  0.24031862    -0.05480
C905        C  0.02466162  0.76298082  0.27071761    -0.32450
C906        C  0.02582386  0.73397139  0.30033686     0.36610
H907        H  0.94808825  0.67709281  0.26946533     0.16980
O908        O  0.93999858  0.72760173  0.21153529    -0.59950
H909        H  0.04645494  0.78662502  0.27104845     0.16990
O910        O  0.05474766  0.73605634  0.32874860    -0.60040
H911        H  0.07667322  0.71925912  0.31859887     0.43990
H912        H  0.91805975  0.74457713  0.22133241     0.43940
C913        C  0.27970866  0.70266406  0.01980750    -0.05120
C914        C  0.24681948  0.69886198  0.99469294    -0.32550
C915        C  0.21680006  0.72757353  0.99441330     0.36700
C916        C  0.21932578  0.76100285  0.01954229    -0.05480
C917        C  0.25220213  0.76474913  0.04470215    -0.32450
C918        C  0.28225989  0.73608792  0.04490371     0.36610
H919        H  0.24463156  0.67376423  0.97469803     0.16980
O920        O  0.18614895  0.72369159  0.96804366    -0.59950
H921        H  0.25440814  0.78979694  0.06475168     0.16990
O922        O  0.31302948  0.74004229  0.07112044    -0.60040
H923        H  0.32930018  0.76234099  0.06084713     0.43990
H924        H  0.16987088  0.70131754  0.97813352     0.43940
C925        C  0.49944524  0.70262016  0.23903348    -0.05120
C926        C  0.47154332  0.73347401  0.23726232    -0.32550
C927        C  0.47059979  0.76314204  0.26632253     0.36700
C928        C  0.49808302  0.76252578  0.29769476    -0.05480
C929        C  0.52594391  0.73164910  0.29949753    -0.32450
C930        C  0.52694618  0.70203324  0.27041597     0.36610
H931        H  0.44997353  0.73424756  0.21355180     0.16980
O932        O  0.44227247  0.79222055  0.26410065    -0.59950
H933        H  0.54754793  0.73091398  0.32318585     0.16990
O934        O  0.55545179  0.67310919  0.27254837    -0.60040
H935        H  0.57766181  0.68289248  0.25588610     0.43990
H936        H  0.42007745  0.78268881  0.28091984     0.43940
C937        C  0.22068591  0.48134666  0.73990526    -0.05120
C938        C  0.21746929  0.45516573  0.77215090    -0.32550
C939        C  0.24571383  0.45525556  0.80247691     0.36700
C940        C  0.27807712  0.48171551  0.80082585    -0.05480
C941        C  0.28132734  0.50785955  0.76856878    -0.32450
C942        C  0.25306680  0.50780892  0.73826661     0.36610
H943        H  0.19313896  0.43420480  0.77367332     0.16980
O944        O  0.24247303  0.42806331  0.83259654    -0.59950
H945        H  0.30566713  0.52881334  0.76706112     0.16990
O946        O  0.25627273  0.53510364  0.70823334    -0.60040
H947        H  0.27866055  0.52582433  0.69149095     0.43990
H948        H  0.22020369  0.43751940  0.84939534     0.43940
C949        C  0.27814283  0.98165552  0.73785519    -0.05120
C950        C  0.28129444  0.00724064  0.77058199    -0.32550
C951        C  0.25244700  0.00734293  0.80055292     0.36700
C952        C  0.21951032  0.98163129  0.79808039    -0.05480
C953        C  0.21637411  0.95601727  0.76537312    -0.32450
C954        C  0.24525124  0.95590189  0.73540753     0.36610
H955        H  0.30598354  0.02771363  0.77269345     0.16980
O956        O  0.25570465  0.03405533  0.83113242    -0.59950
H957        H  0.19168389  0.93554798  0.76327372     0.16990
O958        O  0.24206532  0.92915678  0.70485543    -0.60040
H959        H  0.21984680  0.93885911  0.68831986     0.43990
H960        H  0.27797758  0.02434664  0.84760102     0.43940
C961        C  0.99989644  0.26184709  0.73990144    -0.05120
C962        C  0.97102976  0.23183855  0.73949158    -0.32550
C963        C  0.97043289  0.20249364  0.76883808     0.36700
C964        C  0.99933606  0.20252894  0.79892471    -0.05480
C965        C  0.02820290  0.23254121  0.79931222    -0.32450
C966        C  0.02876649  0.26190482  0.77000020     0.36610
H967        H  0.94847025  0.23156767  0.71670288     0.16980
O968        O  0.94107738  0.17430697  0.76823714    -0.59950
H969        H  0.05078617  0.23282549  0.82207541     0.16990
O970        O  0.05804840  0.29016325  0.77066138    -0.60040
H971        H  0.07921701  0.27975112  0.75303270     0.43990
H972        H  0.91994749  0.18479336  0.78587269     0.43940
C973        C  0.50023500  0.20129202  0.74082359    -0.05120
C974        C  0.52721726  0.23295386  0.73832150    -0.32550
C975        C  0.52784105  0.26272833  0.76734210     0.36700
C976        C  0.50130286  0.26104507  0.79969968    -0.05480
C977        C  0.47439546  0.22935215  0.80224744    -0.32450
C978        C  0.47369049  0.19964609  0.77319834     0.36610
H979        H  0.54823426  0.23440127  0.71398000     0.16980
O980        O  0.55565902  0.29236707  0.76479621    -0.59950
H981        H  0.45333820  0.22795317  0.82656249     0.16990
O982        O  0.44561417  0.17023591  0.77562392    -0.60040
H983        H  0.45427077  0.15284648  0.79764499     0.43990
H984        H  0.54683113  0.30960878  0.74272447     0.43940
C985        C  0.99865353  0.76185514  0.79953431    -0.05120
C986        C  0.96357836  0.75314810  0.77908575    -0.32550
C987        C  0.96301324  0.72342985  0.75000174     0.36700
C988        C  0.99789286  0.70239295  0.74093309    -0.05480
C989        C  0.03294661  0.71113151  0.76137825    -0.32450
C990        C  0.03352712  0.74084123  0.79040722     0.36610
H991        H  0.93658621  0.76918419  0.78597909     0.16980
O992        O  0.92830756  0.71503969  0.73067290    -0.59950
H993        H  0.05997505  0.69516296  0.75445188     0.16990
O994        O  0.06829806  0.74930926  0.80959813    -0.60040
H995        H  0.08049626  0.77124967  0.79421850     0.43990
H996        H  0.91607972  0.69302206  0.74591326     0.43940
C997        C  0.77894995  0.98187658  0.79908082    -0.05120
C998        C  0.74568130  0.00659238  0.80313248    -0.32550
C999        C  0.71566571  0.00671819  0.77454816     0.36700
C1000       C  0.71861700  0.98197947  0.74087082    -0.05480
C1001       C  0.75188128  0.95727919  0.73677014    -0.32450
C1002       C  0.78188069  0.95709133  0.76539831     0.36610
H1003       H  0.74313805  0.02640977  0.82833780     0.16980
O1004       O  0.68456175  0.03261710  0.77880803    -0.59950
H1005       H  0.75444109  0.93759103  0.71146099     0.16990
O1006       O  0.81295611  0.93115168  0.76113602    -0.60040
H1007       H  0.82902450  0.94165362  0.73877409     0.43990
H1008       H  0.66828688  0.02184880  0.80088768     0.43940
C1009       C  0.71994924  0.70209612  0.01960211    -0.05120
C1010       C  0.72625050  0.72497061  0.98541350    -0.32550
C1011       C  0.75589427  0.75406686  0.98458743     0.36700
C1012       C  0.77931809  0.76075626  0.01836892    -0.05480
C1013       C  0.77299836  0.73788918  0.05256165    -0.32450
C1014       C  0.74333205  0.70882405  0.05340055     0.36610
H1015       H  0.70840037  0.71992740  0.95923484     0.16980
O1016       O  0.76195922  0.77565415  0.95063146    -0.59950
H1017       H  0.79079222  0.74297887  0.07877134     0.16990
O1018       O  0.73715278  0.68735287  0.08741281    -0.60040
H1019       H  0.71614083  0.70188767  0.10206281     0.43990
H1020       H  0.78305306  0.76127271  0.93595168     0.43940
C1021       C  0.77984694  0.48163658  0.74006591    -0.05120
C1022       C  0.74704906  0.50699229  0.73633180    -0.32550
C1023       C  0.71648821  0.50684925  0.76456142     0.36700
C1024       C  0.71840384  0.48114501  0.79749143    -0.05480
C1025       C  0.75116886  0.45573605  0.80120007    -0.32450
C1026       C  0.78174618  0.45589005  0.77296583     0.36610
H1027       H  0.74531212  0.52747038  0.71164077     0.16980
O1028       O  0.68591164  0.53339518  0.76076715    -0.59950
H1029       H  0.75293388  0.43531931  0.82593832     0.16990
O1030       O  0.81239056  0.42942854  0.77679640    -0.60040
H1031       H  0.82843992  0.43939673  0.79929966     0.43990
H1032       H  0.66967687  0.52333010  0.73844333     0.43940
C1033       C  0.77879748  0.70192377  0.51957689    -0.05120
C1034       C  0.78249253  0.73488550  0.49434858    -0.32550
C1035       C  0.75384617  0.76497387  0.49422295     0.36700
C1036       C  0.72050723  0.76238077  0.51947867    -0.05480
C1037       C  0.71673221  0.72937766  0.54461488    -0.32450
C1038       C  0.74541289  0.69932576  0.54481073     0.36610
H1039       H  0.80750195  0.73715274  0.47421818     0.16980
O1040       O  0.75773634  0.79582289  0.46793975    -0.59950
H1041       H  0.69167969  0.72712558  0.56469886     0.16990
O1042       O  0.74155456  0.66858161  0.57122608    -0.60040
H1043       H  0.71929897  0.65221763  0.56114615     0.43990
H1044       H  0.77992008  0.81218959  0.47816687     0.43940
C1045       C  0.50064802  0.76117275  0.73902098    -0.05120
C1046       C  0.52674092  0.72884780  0.73586542    -0.32550
C1047       C  0.52732037  0.69904815  0.76484027     0.36700
C1048       C  0.50168511  0.70139589  0.79789913    -0.05480
C1049       C  0.47559602  0.73367377  0.80102951    -0.32450
C1050       C  0.47488893  0.76336240  0.77203878     0.36610
H1051       H  0.54715839  0.72688687  0.71105866     0.16980
O1052       O  0.55430826  0.66876267  0.76153658    -0.59950
H1053       H  0.45511713  0.73557979  0.82580329     0.16990
O1054       O  0.44746937  0.79328762  0.77519287    -0.60040
H1055       H  0.45653610  0.81006040  0.79759099     0.43990
H1056       H  0.54481600  0.65206336  0.73926100     0.43940
loop_ 
_geom_bond_atom_site_label_1 
_geom_bond_atom_site_label_2 
_geom_bond_distance 
_geom_bond_site_symmetry_2 
_ccdc_geom_bond_type 
C1            C2   1.422       .  A
C1            C6   1.424       .  A
C1         C1045   1.486       .  S
C2            C3   1.398       .  A
C2            H7   1.082       .  S
C3            C4   1.399       .  A
C3          C138   1.493       .  S
C4            C5   1.399       .  A
C4            H8   1.081       .  S
C5            C6   1.402       .  A
C5          C363   1.496       .  S
C6            H9   1.083       .  S
C10          C11   1.421       .  A
C10          C15   1.422       .  A
C10        C1048   1.484       .  S
C11          C12   1.399       .  A
C11          H16   1.082       .  S
C12          C13   1.400       .  A
C12         C236   1.492       .  S
C13          C14   1.399       .  A
C13          H17   1.082       .  S
C14          C15   1.400       .  A
C14         C265   1.493       .  S
C15          H18   1.083       .  S
C19          C20   1.424       .  A
C19          C24   1.422       .  A
C19        C1033   1.487       .  S
C20          C21   1.401       .  A
C20          H25   1.083       .  S
C21          C22   1.400       .  A
C21         C347   1.495       .  S
C22          C23   1.398       .  A
C22          H26   1.082       .  S
C23          C24   1.399       .  A
C23         C766   1.492       .  S
C24          H27   1.082       .  S
C28          C29   1.423       .  A
C28          C33   1.422       .  A
C28        C1036   1.487       .  S
C29          C30   1.401       .  A
C29          H34   1.083       .  S
C30          C31   1.401       .  A
C30         C362   1.497       .  S
C31          C32   1.399       .  A
C31          H35   1.080       .  S
C32          C33   1.400       .  A
C32         C751   1.495       .  S
C33          H36   1.082       .  S
C37          C38   1.422       .  A
C37          C42   1.422       .  A
C37        C1021   1.486       .  S
C38          C39   1.401       .  A
C38          H43   1.082       .  S
C39          C40   1.400       .  A
C39         C219   1.494       .  S
C40          C41   1.399       .  A
C40          H44   1.082       .  S
C41          C42   1.400       .  A
C41         C768   1.493       .  S
C42          H45   1.083       .  S
C46          C47   1.422       .  A
C46          C51   1.422       .  A
C46        C1024   1.486       .  S
C47          C48   1.401       .  A
C47          H52   1.082       .  S
C48          C49   1.398       .  A
C48         C234   1.492       .  S
C49          C50   1.398       .  A
C49          H53   1.082       .  S
C50          C51   1.399       .  A
C50         C669   1.491       .  S
C51          H54   1.083       .  S
C55          C56   1.419       .  A
C55          C60   1.418       .  A
C55        C1012   1.474       .  S
C56          C57   1.401       .  A
C56          H61   1.083       .  S
C57          C58   1.401       .  A
C57         C722   1.494       .  S
C58          C59   1.400       .  A
C58          H62   1.082       .  S
C59          C60   1.401       .  A
C59         C316   1.494       .  S
C60          H63   1.083       .  S
C64          C65   1.418       .  A
C64          C69   1.420       .  A
C64        C1009   1.473       .  S
C65          C66   1.400       .  A
C65          H70   1.083       .  S
C66          C67   1.400       .  A
C66         C268   1.494       .  S
C67          C68   1.402       .  A
C67          H71   1.080       .  S
C68          C69   1.401       .  A
C68         C672   1.497       .  S
C69          H72   1.083       .  S
C73          C74   1.421       .  A
C73          C78   1.424       .  A
C73         C997   1.488       .  S
C74          C75   1.399       .  A
C74          H79   1.082       .  S
C75          C76   1.398       .  A
C75         C188   1.491       .  S
C76          C77   1.399       .  A
C76          H80   1.082       .  S
C77          C78   1.402       .  A
C77         C719   1.495       .  S
C78          H81   1.083       .  S
C82          C83   1.422       .  A
C82          C87   1.424       .  A
C82        C1000   1.487       .  S
C83          C84   1.399       .  A
C83          H88   1.082       .  S
C84          C85   1.399       .  A
C84         C140   1.493       .  S
C85          C86   1.400       .  A
C85          H89   1.081       .  S
C86          C87   1.401       .  A
C86         C753   1.496       .  S
C87          H90   1.083       .  S
C91          C92   1.418       .  A
C91          C96   1.419   1_655  A
C91         C985   1.473       .  S
C92          C93   1.401       .  A
C92          H97   1.083       .  S
C93          C94   1.402   1_655  A
C93         C190   1.495       .  S
C94          C95   1.401       .  A
C94          H98   1.080       .  S
C95          C96   1.401       .  A
C95         C317   1.496       .  S
C96          H99   1.083       .  S
C100        C101   1.419   1_655  A
C100        C105   1.419       .  A
C100        C988   1.473       .  S
C101        C102   1.401       .  A
C101        H106   1.083       .  S
C102        C103   1.401       .  A
C102        C222   1.495       .  S
C103        C104   1.400   1_455  A
C103        H107   1.081       .  S
C104        C105   1.401       .  A
C104        C349   1.494       .  S
C105        H108   1.083       .  S
C109        C110   1.420       .  A
C109        C114   1.422       .  A
C109        C973   1.483       .  S
C110        C111   1.399       .  A
C110        H115   1.083       .  S
C111        C112   1.399       .  A
C111        C137   1.491       .  S
C112        C113   1.399       .  A
C112        H116   1.082       .  S
C113        C114   1.401       .  A
C113        C626   1.492       .  S
C114        H117   1.083       .  S
C118        C119   1.421       .  A
C118        C123   1.422       .  A
C118        C976   1.482       .  S
C119        C120   1.399       .  A
C119        H124   1.083       .  S
C120        C121   1.400       .  A
C120        C235   1.493       .  S
C121        C122   1.399       .  A
C121        H125   1.080       .  S
C122        C123   1.401       .  A
C122        C408   1.494       .  S
C123        H126   1.083       .  S
O127        V135   1.853   1_545  S
O127        C137   1.257       .  A
O128        V135   1.849       .  S
O128        C138   1.256       .  A
O129        V135   1.854       .  S
O129        C139   1.258       .  A
O130        V135   1.853       .  S
O130        C140   1.257       .  A
O131        V136   1.948       .  S
O131        C140   1.274       .  A
O132        V136   1.946       .  S
O132        C139   1.274       .  A
O133        V136   1.947       .  S
O133        C138   1.274       .  A
O134        V136   1.946   1_545  S
O134        C137   1.274       .  A
V135        V136   2.069       .  T
C139        C170   1.493       .  S
C141        C142   1.421   1_655  A
C141        C146   1.420       .  A
C141        C964   1.480       .  S
C142        C143   1.400       .  A
C142        H147   1.083       .  S
C143        C144   1.399   1_455  A
C143        C552   1.493       .  S
C144        C145   1.400       .  A
C144        H148   1.082       .  S
C145        C146   1.400       .  A
C145        C189   1.493   1_655  S
C146        H149   1.083   1_655  S
C150        C151   1.421       .  A
C150        C155   1.421       .  A
C150        C961   1.480       .  S
C151        C152   1.399       .  A
C151        H156   1.083       .  S
C152        C153   1.400   1_655  A
C152        C221   1.495       .  S
C153        C154   1.401       .  A
C153        H157   1.080       .  S
C154        C155   1.401   1_455  A
C154        C442   1.496       .  S
C155        H158   1.083       .  S
C159        C160   1.420       .  A
C159        C164   1.423       .  A
C159        C952   1.485       .  S
C160        C161   1.398       .  A
C160        H165   1.083       .  S
C161        C162   1.397       .  A
C161        C536   1.489       .  S
C162        C163   1.399       .  A
C162        H166   1.082       .  S
C163        C164   1.402       .  A
C163        C187   1.494       .  S
C164        H167   1.083       .  S
C168        C169   1.422       .  A
C168        C173   1.421       .  A
C168        C949   1.485       .  S
C169        C170   1.401       .  A
C169        H174   1.083       .  S
C170        C171   1.399       .  A
C171        C172   1.398       .  A
C171        H175   1.082       .  S
C172        C173   1.399       .  A
C172        C454   1.491       .  S
C173        H176   1.082       .  S
O177        V185   1.947   1_455  S
O177        C187   1.274       .  A
O178        V185   1.945       .  S
O178        C188   1.274       .  A
O179        V185   1.948   1_545  S
O179        C189   1.275   1_655  A
O180        V185   1.949   1_455  S
O180        C190   1.275   1_455  A
O181        V186   1.852       .  S
O181        C190   1.257       .  A
O182        V186   1.851   1_445  S
O182        C189   1.257       .  A
O183        V186   1.854       .  S
O183        C188   1.257       .  A
O184        V186   1.854   1_455  S
O184        C187   1.258       .  A
V185        V186   2.068       .  T
C191        C192   1.422       .  A
C191        C196   1.422       .  A
C191        C937   1.485       .  S
C192        C193   1.400       .  A
C192        H197   1.083       .  S
C193        C194   1.399       .  A
C193        C612   1.493       .  S
C194        C195   1.398       .  A
C194        H198   1.082       .  S
C195        C196   1.399       .  A
C195        C220   1.491       .  S
C196        H199   1.083       .  S
C200        C201   1.422       .  A
C200        C205   1.421       .  A
C200        C940   1.484       .  S
C201        C202   1.400       .  A
C201        H206   1.083       .  S
C202        C203   1.398       .  A
C202        C598   1.491       .  S
C203        C204   1.398       .  A
C203        H207   1.082       .  S
C204        C205   1.399       .  A
C204        C233   1.491       .  S
C205        H208   1.083       .  S
O209        V217   1.854   1_655  S
O209        C219   1.257       .  A
O210        V217   1.854       .  S
O210        C220   1.258       .  A
O211        V217   1.852   1_655  S
O211        C221   1.257       .  A
O212        V217   1.851       .  S
O212        C222   1.257       .  A
O213        V218   1.948   1_655  S
O213        C222   1.275   1_655  A
O214        V218   1.949       .  S
O214        C221   1.275   1_455  A
O215        V218   1.946       .  S
O215        C220   1.274       .  A
O216        V218   1.948   1_655  S
O216        C219   1.275       .  A
V217        V218   2.067       .  T
O223        V231   1.945       .  S
O223        C233   1.273       .  A
O224        V231   1.946       .  S
O224        C234   1.274       .  A
O225        V231   1.947       .  S
O225        C235   1.274       .  A
O226        V231   1.947       .  S
O226        C236   1.275       .  A
O227        V232   1.851       .  S
O227        C236   1.257       .  A
O228        V232   1.849       .  S
O228        C235   1.256       .  A
O229        V232   1.854       .  S
O229        C234   1.258       .  A
O230        V232   1.852       .  S
O230        C233   1.257       .  A
V231        V232   2.069       .  T
C237        C238   1.421       .  A
C237        C242   1.421       .  A
C237        C925   1.482       .  S
C238        C239   1.400       .  A
C238        H243   1.083       .  S
C239        C240   1.402       .  A
C239        C639   1.495       .  S
C240        C241   1.399       .  A
C240        H244   1.081       .  S
C241        C242   1.399       .  A
C241        C266   1.494       .  S
C242        H245   1.083       .  S
C246        C247   1.421       .  A
C246        C251   1.421       .  A
C246        C928   1.482       .  S
C247        C248   1.400       .  A
C247        H252   1.083       .  S
C248        C249   1.399       .  A
C248        C393   1.493       .  S
C249        C250   1.399       .  A
C249        H253   1.082       .  S
C250        C251   1.399       .  A
C250        C364   1.493       .  S
C251        H254   1.083       .  S
O255        V263   1.856   1_556  S
O255        C265   1.258       .  A
O256        V263   1.857       .  S
O256        C266   1.258       .  A
O257        V263   1.854       .  S
O257        C267   1.257       .  A
O258        V263   1.853       .  S
O258        C268   1.258       .  A
O259        V264   1.948       .  S
O259        C268   1.275       .  A
O260        V264   1.948       .  S
O260        C267   1.275       .  A
O261        V264   1.948       .  S
O261        C266   1.275       .  A
O262        V264   1.948   1_556  S
O262        C265   1.275       .  A
V263        V264   2.062       .  T
C267        C280   1.493       .  S
C269        C270   1.423       .  A
C269        C274   1.421       .  A
C269        C916   1.487       .  S
C270        C271   1.401       .  A
C270        H275   1.083       .  S
C271        C272   1.400       .  A
C271        C538   1.495       .  S
C272        C273   1.399       .  A
C272        H276   1.082       .  S
C273        C274   1.399       .  A
C273        C315   1.492       .  S
C274        H277   1.082       .  S
C278        C279   1.421       .  A
C278        C283   1.423       .  A
C278        C913   1.486       .  S
C279        C280   1.399       .  A
C279        H284   1.082       .  S
C280        C281   1.400       .  A
C281        C282   1.401       .  A
C281        H285   1.081       .  S
C282        C283   1.401       .  A
C282        C595   1.497       .  S
C283        H286   1.083       .  S
C287        C288   1.421       .  A
C287        C292   1.422       .  A
C287        C904   1.482       .  S
C288        C289   1.400       .  A
C288        H293   1.083       .  S
C289        C290   1.399   1_655  A
C289        C523   1.493       .  S
C290        C291   1.399   1_455  A
C290        H294   1.082       .  S
C291        C292   1.400       .  A
C291        C318   1.493       .  S
C292        H295   1.083       .  S
C296        C297   1.421       .  A
C296        C301   1.422       .  A
C296        C901   1.482       .  S
C297        C298   1.400   1_655  A
C297        H302   1.083       .  S
C298        C299   1.401       .  A
C298        C583   1.495   1_455  S
C299        C300   1.400       .  A
C299        H303   1.080       .  S
C300        C301   1.401   1_455  A
C300        C350   1.496       .  S
C301        H304   1.083       .  S
O305        V313   1.946   1_455  S
O305        C315   1.274       .  A
O306        V313   1.948       .  S
O306        C316   1.274       .  A
O307        V313   1.949   1_556  S
O307        C317   1.275   1_655  A
O308        V313   1.948   1_455  S
O308        C318   1.274   1_455  A
O309        V314   1.853       .  S
O309        C318   1.257       .  A
O310        V314   1.853   1_456  S
O310        C317   1.257       .  A
O311        V314   1.854       .  S
O311        C316   1.258       .  A
O312        V314   1.855   1_455  S
O312        C315   1.258       .  A
V313        V314   2.066       .  T
C319        C320   1.421       .  A
C319        C324   1.422       .  A
C319        C892   1.484       .  S
C320        C321   1.400       .  A
C320        H325   1.082       .  S
C321        C322   1.400       .  A
C321        C610   1.493       .  S
C322        C323   1.399       .  A
C322        H326   1.082       .  S
C323        C324   1.400       .  A
C323        C348   1.494       .  S
C324        H327   1.083       .  S
C328        C329   1.421       .  A
C328        C333   1.423       .  A
C328        C889   1.484       .  S
C329        C330   1.398       .  A
C329        H334   1.083       .  S
C330        C331   1.399       .  A
C330        C456   1.491       .  S
C331        C332   1.401       .  A
C331        H335   1.082       .  S
C332        C333   1.402       .  A
C332        C361   1.496       .  S
C333        H336   1.083       .  S
O337        V345   1.853       .  S
O337        C347   1.257       .  A
O338        V345   1.855   1_455  S
O338        C348   1.258       .  A
O339        V345   1.853       .  S
O339        C349   1.257       .  A
O340        V345   1.853   1_455  S
O340        C350   1.257       .  A
O341        V346   1.949       .  S
O341        C350   1.275   1_655  A
O342        V346   1.948   1_455  S
O342        C349   1.274   1_455  A
O343        V346   1.949   1_455  S
O343        C348   1.275       .  A
O344        V346   1.950       .  S
O344        C347   1.275       .  A
V345        V346   2.067       .  T
O351        V359   1.951       .  S
O351        C361   1.275       .  A
O352        V359   1.951       .  S
O352        C362   1.275       .  A
O353        V359   1.950       .  S
O353        C363   1.274       .  A
O354        V359   1.947       .  S
O354        C364   1.274       .  A
O355        V360   1.852       .  S
O355        C364   1.257       .  A
O356        V360   1.852       .  S
O356        C363   1.257       .  A
O357        V360   1.849       .  S
O357        C362   1.256       .  A
O358        V360   1.852       .  S
O358        C361   1.257       .  A
V359        V360   2.071       .  T
C365        C366   1.419       .  A
C365        C370   1.418       .  A
C365        C877   1.473       .  S
C366        C367   1.401       .  A
C366        H371   1.083       .  S
C367        C368   1.400       .  A
C367        C625   1.494       .  S
C368        C369   1.401       .  A
C368        H372   1.081       .  S
C369        C370   1.400       .  A
C369        C394   1.494       .  S
C370        H373   1.083       .  S
C374        C375   1.419       .  A
C374        C379   1.420       .  A
C374        C880   1.474       .  S
C375        C376   1.400       .  A
C375        H380   1.083       .  S
C376        C377   1.402       .  A
C376        C640   1.496       .  S
C377        C378   1.399       .  A
C377        H381   1.080       .  S
C378        C379   1.401       .  A
C378        C407   1.495       .  S
C379        H382   1.083       .  S
O383        V391   1.854       .  S
O383        C393   1.257       .  A
O384        V391   1.851   1_545  S
O384        C394   1.257       .  A
O385        V391   1.852       .  S
O385        C395   1.257       .  A
O386        V391   1.854       .  S
O386        C396   1.257       .  A
O387        V392   1.948       .  S
O387        C396   1.275       .  A
O388        V392   1.952       .  S
O388        C395   1.275       .  A
O389        V392   1.947   1_545  S
O389        C394   1.274       .  A
O390        V392   1.948       .  S
O390        C393   1.274       .  A
V391        V392   2.067       .  T
C395        C486   1.498       .  S
C396        C702   1.494       .  S
O397        V405   1.855       .  S
O397        C407   1.258       .  A
O398        V405   1.855   1_556  S
O398        C408   1.258       .  A
O399        V405   1.855       .  S
O399        C409   1.257       .  A
O400        V405   1.855       .  S
O400        C410   1.257       .  A
O401        V406   1.946       .  S
O401        C410   1.275       .  A
O402        V406   1.947       .  S
O402        C409   1.275       .  A
O403        V406   1.947   1_556  S
O403        C408   1.274       .  A
O404        V406   1.948       .  S
O404        C407   1.274       .  A
V405        V406   2.063       .  T
C409        C468   1.492       .  S
C410        C686   1.491       .  S
C411        C412   1.423       .  A
C411        C416   1.420       .  A
C411        C865   1.483       .  S
C412        C413   1.401       .  A
C412        H417   1.083       .  S
C413        C414   1.399       .  A
C413        C609   1.494       .  S
C414        C415   1.398       .  A
C414        H418   1.082       .  S
C415        C416   1.398       .  A
C415        C440   1.490       .  S
C416        H419   1.083       .  S
C420        C421   1.419       .  A
C420        C425   1.422       .  A
C420        C868   1.482       .  S
C421        C422   1.398       .  A
C421        H426   1.083       .  S
C422        C423   1.400       .  A
C422        C623   1.491       .  S
C423        C424   1.400       .  A
C423        H427   1.081       .  S
C424        C425   1.400       .  A
C424        C455   1.494       .  S
C425        H428   1.083       .  S
O429        V437   1.850   1_655  S
O429        C439   1.256       .  A
O430        V437   1.851       .  S
O430        C440   1.257       .  A
O431        V437   1.847   1_655  S
O431        C441   1.256       .  A
O432        V437   1.849       .  S
O432        C442   1.256       .  A
O433        V438   1.951       .  S
O433        C442   1.275   1_655  A
O434        V438   1.951   1_455  S
O434        C441   1.275   1_455  A
O435        V438   1.945   1_455  S
O435        C440   1.273       .  A
O436        V438   1.947       .  S
O436        C439   1.274       .  A
V437        V438   2.071   1_455  T
C439        C734   1.492       .  S
C441        C504   1.496   1_655  S
O443        V451   1.944       .  S
O443        C453   1.274       .  A
O444        V451   1.945       .  S
O444        C454   1.274       .  A
O445        V451   1.948   1_545  S
O445        C455   1.275       .  A
O446        V451   1.947       .  S
O446        C456   1.275       .  A
O447        V452   1.854       .  S
O447        C456   1.257       .  A
O448        V452   1.855   1_545  S
O448        C455   1.258       .  A
O449        V452   1.855       .  S
O449        C454   1.258       .  A
O450        V452   1.855       .  S
O450        C453   1.258       .  A
V451        V452   2.063       .  T
C453        C488   1.491       .  S
C457        C458   1.421       .  A
C457        C462   1.422       .  A
C457        C853   1.484       .  S
C458        C459   1.399       .  A
C458        H463   1.083       .  S
C459        C460   1.400       .  A
C459        C549   1.492       .  S
C460        C461   1.400       .  A
C460        H464   1.081       .  S
C461        C462   1.401       .  A
C461        C537   1.495       .  S
C462        H465   1.083       .  S
C466        C467   1.421       .  A
C466        C471   1.423       .  A
C466        C856   1.485       .  S
C467        C468   1.398       .  A
C467        H472   1.083       .  S
C468        C469   1.399       .  A
C469        C470   1.401       .  A
C469        H473   1.082       .  S
C470        C471   1.401       .  A
C470        C596   1.495       .  S
C471        H474   1.083       .  S
C475        C476   1.424       .  A
C475        C480   1.422       .  A
C475        C841   1.487       .  S
C476        C477   1.402       .  A
C476        H481   1.083       .  S
C477        C478   1.400       .  A
C477        C521   1.496       .  S
C478        C479   1.398       .  A
C478        H482   1.081       .  S
C479        C480   1.399       .  A
C479        C535   1.492       .  S
C480        H483   1.082       .  S
C484        C485   1.425       .  A
C484        C489   1.421       .  A
C484        C844   1.487       .  S
C485        C486   1.403       .  A
C485        H490   1.083       .  S
C486        C487   1.400       .  A
C487        C488   1.398       .  A
C487        H491   1.081       .  S
C488        C489   1.398       .  A
C489        H492   1.082       .  S
C493        C494   1.421   1_655  A
C493        C498   1.420       .  A
C493        C829   1.483       .  S
C494        C495   1.401       .  A
C494        H499   1.083       .  S
C495        C496   1.401       .  A
C495        C524   1.495       .  S
C496        C497   1.399   1_455  A
C496        H500   1.081       .  S
C497        C498   1.399       .  A
C497        C551   1.492       .  S
C498        H501   1.083       .  S
C502        C503   1.422       .  A
C502        C507   1.423       .  A
C502        C832   1.482       .  S
C503        C504   1.399   1_655  A
C503        H508   1.083       .  S
C504        C505   1.400       .  A
C505        C506   1.401       .  A
C505        H509   1.080       .  S
C506        C507   1.401   1_455  A
C506        C584   1.498       .  S
C507        H510   1.083       .  S
O511        V519   1.950       .  S
O511        C521   1.275       .  A
O512        V519   1.951   1_655  S
O512        C522   1.275       .  A
O513        V519   1.947       .  S
O513        C523   1.274   1_455  A
O514        V519   1.948   1_645  S
O514        C524   1.275   1_655  A
O515        V520   1.854   1_545  S
O515        C524   1.257       .  A
O516        V520   1.854   1_655  S
O516        C523   1.257       .  A
O517        V520   1.852   1_655  S
O517        C522   1.257       .  A
O518        V520   1.851       .  S
O518        C521   1.257       .  A
V519        V520   2.067       .  T
C522        C693   1.497       .  S
O525        V533   1.945       .  S
O525        C535   1.274       .  A
O526        V533   1.943   1_556  S
O526        C536   1.273       .  A
O527        V533   1.949   1_545  S
O527        C537   1.275       .  A
O528        V533   1.950       .  S
O528        C538   1.275       .  A
O529        V534   1.855       .  S
O529        C538   1.258       .  A
O530        V534   1.853   1_545  S
O530        C537   1.257       .  A
O531        V534   1.854   1_556  S
O531        C536   1.258       .  A
O532        V534   1.855       .  S
O532        C535   1.258       .  A
V533        V534   2.065       .  T
O539        V547   1.947   1_455  S
O539        C549   1.275       .  A
O540        V547   1.946       .  S
O540        C550   1.275       .  A
O541        V547   1.946   1_455  S
O541        C551   1.274   1_455  A
O542        V547   1.947   1_556  S
O542        C552   1.274   1_655  A
O543        V548   1.856   1_456  S
O543        C552   1.258       .  A
O544        V548   1.856       .  S
O544        C551   1.258       .  A
O545        V548   1.853       .  S
O545        C550   1.257       .  A
O546        V548   1.853   1_455  S
O546        C549   1.257       .  A
V547        V548   2.062       .  T
C550        C675   1.491       .  S
C553        C554   1.420       .  A
C553        C558   1.422       .  A
C553        C820   1.481       .  S
C554        C555   1.398       .  A
C554        H559   1.083       .  S
C555        C556   1.399       .  A
C555        C611   1.493       .  S
C556        C557   1.400       .  A
C556        H560   1.081       .  S
C557        C558   1.402       .  A
C557        C582   1.496       .  S
C558        H561   1.083       .  S
C562        C563   1.423       .  A
C562        C567   1.419       .  A
C562        C817   1.480       .  S
C563        C564   1.403       .  A
C563        H568   1.083       .  S
C564        C565   1.401       .  A
C564        C637   1.496       .  S
C565        C566   1.397       .  A
C565        H569   1.081       .  S
C566        C567   1.397       .  A
C566        C597   1.489       .  S
C567        H570   1.083       .  S
O571        V579   1.851       .  S
O571        C581   1.256       .  A
O572        V579   1.852   1_455  S
O572        C582   1.257       .  A
O573        V579   1.848       .  S
O573        C583   1.256       .  A
O574        V579   1.847   1_455  S
O574        C584   1.256       .  A
O575        V580   1.952       .  S
O575        C584   1.275   1_655  A
O576        V580   1.950   1_455  S
O576        C583   1.275   1_455  A
O577        V580   1.950   1_455  S
O577        C582   1.274       .  A
O578        V580   1.950       .  S
O578        C581   1.275       .  A
V579        V580   2.072       .  T
C581        C652   1.495       .  S
O585        V593   1.951       .  S
O585        C595   1.275       .  A
O586        V593   1.950       .  S
O586        C596   1.275       .  A
O587        V593   1.943       .  S
O587        C597   1.273       .  A
O588        V593   1.945   1_556  S
O588        C598   1.273       .  A
O589        V594   1.854   1_556  S
O589        C598   1.258       .  A
O590        V594   1.854       .  S
O590        C597   1.258       .  A
O591        V594   1.854       .  S
O591        C596   1.257       .  A
O592        V594   1.853       .  S
O592        C595   1.257       .  A
V593        V594   2.067       .  T
O599        V607   1.850       .  S
O599        C609   1.257       .  A
O600        V607   1.851       .  S
O600        C610   1.256       .  A
O601        V607   1.851       .  S
O601        C611   1.256       .  A
O602        V607   1.851       .  S
O602        C612   1.257       .  A
O603        V608   1.946       .  S
O603        C612   1.274       .  A
O604        V608   1.947       .  S
O604        C611   1.274       .  A
O605        V608   1.948       .  S
O605        C610   1.274       .  A
O606        V608   1.949       .  S
O606        C609   1.274       .  A
V607        V608   2.074       .  T
O613        V621   1.946       .  S
O613        C623   1.275       .  A
O614        V621   1.947       .  S
O614        C624   1.274       .  A
O615        V621   1.948       .  S
O615        C625   1.274       .  A
O616        V621   1.947       .  S
O616        C626   1.274       .  A
O617        V622   1.855       .  S
O617        C626   1.258       .  A
O618        V622   1.855       .  S
O618        C625   1.258       .  A
O619        V622   1.851       .  S
O619        C624   1.257       .  A
O620        V622   1.851       .  S
O620        C623   1.256       .  A
V621        V622   2.066       .  T
C624        C725   1.491       .  S
O627        V635   1.950       .  S
O627        C637   1.274       .  A
O628        V635   1.948       .  S
O628        C638   1.274       .  A
O629        V635   1.951       .  S
O629        C639   1.275       .  A
O630        V635   1.950       .  S
O630        C640   1.274       .  A
O631        V636   1.845       .  S
O631        C640   1.255       .  A
O632        V636   1.847       .  S
O632        C639   1.255       .  A
O633        V636   1.848       .  S
O633        C638   1.256       .  A
O634        V636   1.848       .  S
O634        C637   1.256       .  A
V635        V636   2.077       .  T
C638        C645   1.494       .  S
C641        C642   1.423       .  A
C641        C646   1.423       .  A
C641        C805   1.486       .  S
C642        C643   1.400       .  A
C642        H647   1.082       .  S
C643        C644   1.397       .  A
C643        C670   1.493       .  S
C644        C645   1.399       .  A
C644        H648   1.082       .  S
C645        C646   1.400       .  A
C646        H649   1.083       .  S
C650        C651   1.423       .  A
C650        C655   1.422       .  A
C650        C808   1.487       .  S
C651        C652   1.400       .  A
C651        H656   1.083       .  S
C652        C653   1.400       .  A
C653        C654   1.399       .  A
C653        H657   1.082       .  S
C654        C655   1.400       .  A
C654        C767   1.493       .  S
C655        H658   1.082       .  S
O659        V667   1.945   1_556  S
O659        C669   1.273       .  A
O660        V667   1.947       .  S
O660        C670   1.273       .  A
O661        V667   1.951       .  S
O661        C671   1.275       .  A
O662        V667   1.951       .  S
O662        C672   1.275       .  A
O663        V668   1.849       .  S
O663        C672   1.256       .  A
O664        V668   1.852       .  S
O664        C671   1.257       .  A
O665        V668   1.853       .  S
O665        C670   1.258       .  A
O666        V668   1.853   1_556  S
O666        C669   1.257       .  A
V667        V668   2.072       .  T
C671        C684   1.496       .  S
C673        C674   1.421       .  A
C673        C678   1.424       .  A
C673        C793   1.486       .  S
C674        C675   1.398       .  A
C674        H679   1.082       .  S
C675        C676   1.399       .  A
C676        C677   1.400       .  A
C676        H680   1.081       .  S
C677        C678   1.402       .  A
C677        C721   1.497       .  S
C678        H681   1.083       .  S
C682        C683   1.424       .  A
C682        C687   1.421       .  A
C682        C796   1.486       .  S
C683        C684   1.402       .  A
C683        H688   1.083       .  S
C684        C685   1.401       .  A
C685        C686   1.399       .  A
C685        H689   1.082       .  S
C686        C687   1.398       .  A
C687        H690   1.082       .  S
C691        C692   1.422       .  A
C691        C696   1.421       .  A
C691        C784   1.483       .  S
C692        C693   1.402       .  A
C692        H697   1.083       .  S
C693        C694   1.401       .  A
C694        C695   1.399       .  A
C694        H698   1.081       .  S
C695        C696   1.399       .  A
C695        C720   1.493       .  S
C696        H699   1.083       .  S
C700        C701   1.421       .  A
C700        C705   1.420       .  A
C700        C781   1.481       .  S
C701        C702   1.401       .  A
C701        H706   1.083       .  S
C702        C703   1.401       .  A
C703        C704   1.401       .  A
C703        H707   1.082       .  S
C704        C705   1.400       .  A
C704        C754   1.494       .  S
C705        H708   1.083       .  S
O709        V717   1.949   1_556  S
O709        C719   1.274       .  A
O710        V717   1.947       .  S
O710        C720   1.274       .  A
O711        V717   1.950   1_545  S
O711        C721   1.275       .  A
O712        V717   1.948       .  S
O712        C722   1.275       .  A
O713        V718   1.853       .  S
O713        C722   1.257       .  A
O714        V718   1.854   1_545  S
O714        C721   1.257       .  A
O715        V718   1.854       .  S
O715        C720   1.257       .  A
O716        V718   1.854   1_556  S
O716        C719   1.258       .  A
V717        V718   2.067       .  T
C723        C724   1.421       .  A
C723        C728   1.420       .  A
C723        C769   1.481       .  S
C724        C725   1.399       .  A
C724        H729   1.082       .  S
C725        C726   1.399       .  A
C726        C727   1.398       .  A
C726        H730   1.082       .  S
C727        C728   1.399       .  A
C727        C752   1.491       .  S
C728        H731   1.083       .  S
C732        C733   1.421       .  A
C732        C737   1.421       .  A
C732        C772   1.481       .  S
C733        C734   1.399       .  A
C733        H738   1.082       .  S
C734        C735   1.399       .  A
C735        C736   1.398       .  A
C735        H739   1.082       .  S
C736        C737   1.399       .  A
C736        C765   1.492       .  S
C737        H740   1.083       .  S
O741        V749   1.948       .  S
O741        C751   1.274       .  A
O742        V749   1.944   1_545  S
O742        C752   1.274       .  A
O743        V749   1.950       .  S
O743        C753   1.275       .  A
O744        V749   1.949       .  S
O744        C754   1.275       .  A
O745        V750   1.855       .  S
O745        C754   1.257       .  A
O746        V750   1.852       .  S
O746        C753   1.257       .  A
O747        V750   1.855   1_545  S
O747        C752   1.258       .  A
O748        V750   1.855       .  S
O748        C751   1.258       .  A
V749        V750   2.065       .  T
O755        V763   1.946       .  S
O755        C765   1.274       .  A
O756        V763   1.946       .  S
O756        C766   1.274       .  A
O757        V763   1.948       .  S
O757        C767   1.274       .  A
O758        V763   1.947       .  S
O758        C768   1.275       .  A
O759        V764   1.855       .  S
O759        C768   1.257       .  A
O760        V764   1.854       .  S
O760        C767   1.258       .  A
O761        V764   1.856       .  S
O761        C766   1.258       .  A
O762        V764   1.853       .  S
O762        C765   1.257       .  A
V763        V764   2.067       .  T
C769        C770   1.404       .  A
C769        C774   1.409       .  A
C770        C771   1.400       .  A
C770        H775   1.084       .  S
C771        C772   1.409       .  A
C771        O776   1.372       .  S
C772        C773   1.404       .  A
C773        C774   1.400       .  A
C773        H777   1.084       .  S
C774        O778   1.372       .  S
O776        H780   0.991       .  S
O778        H779   0.991       .  S
C781        C782   1.404       .  A
C781        C786   1.409   1_565  A
C782        C783   1.401       .  A
C782        H787   1.084       .  S
C783        C784   1.410       .  A
C783        O788   1.372       .  S
C784        C785   1.404   1_565  A
C785        C786   1.400       .  A
C785        H789   1.084       .  S
C786        O790   1.372       .  S
O788        H792   0.991       .  S
O790        H791   0.991       .  S
C793        C794   1.404   1_554  A
C793        C798   1.412       .  A
C794        C795   1.401       .  A
C794        H799   1.083       .  S
C795        C796   1.411   1_556  A
C795        O800   1.372       .  S
C796        C797   1.404       .  A
C797        C798   1.401       .  A
C797        H801   1.083       .  S
C798        O802   1.372       .  S
O800        H804   0.992       .  S
O802        H803   0.992       .  S
C805        C806   1.404       .  A
C805        C810   1.411       .  A
C806        C807   1.401       .  A
C806        H811   1.083       .  S
C807        C808   1.411       .  A
C807        O812   1.372       .  S
C808        C809   1.404       .  A
C809        C810   1.401       .  A
C809        H813   1.083       .  S
C810        O814   1.372       .  S
O812        H816   0.992       .  S
O814        H815   0.992       .  S
C817        C818   1.402       .  A
C817        C822   1.410       .  A
C818        C819   1.401       .  A
C818        H823   1.084       .  S
C819        C820   1.410       .  A
C819        O824   1.372       .  S
C820        C821   1.403       .  A
C821        C822   1.400       .  A
C821        H825   1.084       .  S
C822        O826   1.372       .  S
O824        H828   0.991       .  S
O826        H827   0.991       .  S
C829        C830   1.404   1_655  A
C829        C834   1.411       .  A
C830        C831   1.399       .  A
C830        H835   1.084       .  S
C831        C832   1.410   1_455  A
C831        O836   1.372       .  S
C832        C833   1.404       .  A
C833        C834   1.400       .  A
C833        H837   1.084       .  S
C834        O838   1.372       .  S
O836        H840   0.991       .  S
O838        H839   0.991       .  S
C841        C842   1.404   1_565  A
C841        C846   1.412       .  A
C842        C843   1.401       .  A
C842        H847   1.083       .  S
C843        C844   1.412   1_545  A
C843        O848   1.372       .  S
C844        C845   1.404       .  A
C845        C846   1.401       .  A
C845        H849   1.083       .  S
C846        O850   1.372       .  S
O848        H852   0.992       .  S
O850        H851   0.992       .  S
C853        C854   1.404       .  A
C853        C858   1.410   1_554  A
C854        C855   1.400       .  A
C854        H859   1.084       .  S
C855        C856   1.411       .  A
C855        O860   1.373       .  S
C856        C857   1.404   1_554  A
C857        C858   1.401       .  A
C857        H861   1.083       .  S
C858        O862   1.372       .  S
O860        H864   0.992       .  S
O862        H863   0.992       .  S
C865        C866   1.404       .  A
C865        C870   1.411       .  A
C866        C867   1.400       .  A
C866        H871   1.083       .  S
C867        C868   1.410       .  A
C867        O872   1.372       .  S
C868        C869   1.403       .  A
C869        C870   1.399       .  A
C869        H873   1.084       .  S
C870        O874   1.373       .  S
O872        H876   0.992       .  S
O874        H875   0.992       .  S
C877        C878   1.402       .  A
C877        C882   1.407       .  A
C878        C879   1.400       .  A
C878        H883   1.084       .  S
C879        C880   1.407       .  A
C879        O884   1.371       .  S
C880        C881   1.402       .  A
C881        C882   1.400       .  A
C881        H885   1.084       .  S
C882        O886   1.372       .  S
O884        H888   0.992       .  S
O886        H887   0.992       .  S
C889        C890   1.404       .  A
C889        C894   1.410       .  A
C890        C891   1.402       .  A
C890        H895   1.083       .  S
C891        C892   1.410       .  A
C891        O896   1.372       .  S
C892        C893   1.404       .  A
C893        C894   1.400       .  A
C893        H897   1.084       .  S
C894        O898   1.373       .  S
O896        H900   0.992       .  S
O898        H899   0.992       .  S
C901        C902   1.404       .  A
C901        C906   1.410   1_655  A
C902        C903   1.400       .  A
C902        H907   1.084       .  S
C903        C904   1.409       .  A
C903        O908   1.372       .  S
C904        C905   1.404   1_655  A
C905        C906   1.399       .  A
C905        H909   1.084       .  S
C906        O910   1.372       .  S
O908        H912   0.991       .  S
O910        H911   0.991       .  S
C913        C914   1.404   1_554  A
C913        C918   1.411       .  A
C914        C915   1.401       .  A
C914        H919   1.084       .  S
C915        C916   1.411   1_556  A
C915        O920   1.372       .  S
C916        C917   1.405       .  A
C917        C918   1.401       .  A
C917        H921   1.083       .  S
C918        O922   1.372       .  S
O920        H924   0.992       .  S
O922        H923   0.992       .  S
C925        C926   1.404       .  A
C925        C930   1.410       .  A
C926        C927   1.399       .  A
C926        H931   1.083       .  S
C927        C928   1.409       .  A
C927        O932   1.372       .  S
C928        C929   1.404       .  A
C929        C930   1.399       .  A
C929        H933   1.084       .  S
C930        O934   1.372       .  S
O932        H936   0.991       .  S
O934        H935   0.991       .  S
C937        C938   1.404       .  A
C937        C942   1.410       .  A
C938        C939   1.400       .  A
C938        H943   1.083       .  S
C939        C940   1.410       .  A
C939        O944   1.372       .  S
C940        C941   1.404       .  A
C941        C942   1.400       .  A
C941        H945   1.084       .  S
C942        O946   1.372       .  S
O944        H948   0.992       .  S
O946        H947   0.992       .  S
C949        C950   1.404   1_565  A
C949        C954   1.411       .  A
C950        C951   1.400       .  A
C950        H955   1.084       .  S
C951        C952   1.411   1_545  A
C951        O956   1.373       .  S
C952        C953   1.404       .  A
C953        C954   1.401       .  A
C953        H957   1.083       .  S
C954        O958   1.372       .  S
O956        H960   0.992       .  S
O958        H959   0.992       .  S
C961        C962   1.403       .  A
C961        C966   1.409   1_655  A
C962        C963   1.399       .  A
C962        H967   1.084       .  S
C963        C964   1.410       .  A
C963        O968   1.372       .  S
C964        C965   1.403   1_655  A
C965        C966   1.399       .  A
C965        H969   1.084       .  S
C966        O970   1.372       .  S
O968        H972   0.992       .  S
O970        H971   0.991       .  S
C973        C974   1.404       .  A
C973        C978   1.410       .  A
C974        C975   1.401       .  A
C974        H979   1.084       .  S
C975        C976   1.410       .  A
C975        O980   1.372       .  S
C976        C977   1.403       .  A
C977        C978   1.400       .  A
C977        H981   1.084       .  S
C978        O982   1.372       .  S
O980        H984   0.991       .  S
O982        H983   0.991       .  S
C985        C986   1.403       .  A
C985        C990   1.407   1_655  A
C986        C987   1.401       .  A
C986        H991   1.084       .  S
C987        C988   1.407       .  A
C987        O992   1.371       .  S
C988        C989   1.402   1_655  A
C989        C990   1.399       .  A
C989        H993   1.084       .  S
C990        O994   1.372       .  S
O992        H996   0.991       .  S
O994        H995   0.992       .  S
C997        C998   1.404   1_565  A
C997       C1002   1.412       .  A
C998        C999   1.401       .  A
C998       H1003   1.083       .  S
C999       C1000   1.411   1_545  A
C999       O1004   1.372       .  S
C1000      C1001   1.404       .  A
C1001      C1002   1.401       .  A
C1001      H1005   1.083       .  S
C1002      O1006   1.372       .  S
O1004      H1008   0.992       .  S
O1006      H1007   0.992       .  S
C1009      C1010   1.403   1_554  A
C1009      C1014   1.407       .  A
C1010      C1011   1.400       .  A
C1010      H1015   1.084       .  S
C1011      C1012   1.407   1_556  A
C1011      O1016   1.371       .  S
C1012      C1013   1.403       .  A
C1013      C1014   1.400       .  A
C1013      H1017   1.084       .  S
C1014      O1018   1.372       .  S
O1016      H1020   0.992       .  S
O1018      H1019   0.992       .  S
C1021      C1022   1.405       .  A
C1021      C1026   1.410       .  A
C1022      C1023   1.400       .  A
C1022      H1027   1.083       .  S
C1023      C1024   1.410       .  A
C1023      O1028   1.372       .  S
C1024      C1025   1.405       .  A
C1025      C1026   1.401       .  A
C1025      H1029   1.083       .  S
C1026      O1030   1.372       .  S
O1028      H1032   0.992       .  S
O1030      H1031   0.992       .  S
C1033      C1034   1.405       .  A
C1033      C1038   1.411       .  A
C1034      C1035   1.401       .  A
C1034      H1039   1.083       .  S
C1035      C1036   1.411       .  A
C1035      O1040   1.372       .  S
C1036      C1037   1.404       .  A
C1037      C1038   1.401       .  A
C1037      H1041   1.084       .  S
C1038      O1042   1.372       .  S
O1040      H1044   0.992       .  S
O1042      H1043   0.992       .  S
C1045      C1046   1.405       .  A
C1045      C1050   1.411       .  A
C1046      C1047   1.402       .  A
C1046      H1051   1.083       .  S
C1047      C1048   1.410       .  A
C1047      O1052   1.372       .  S
C1048      C1049   1.403       .  A
C1049      C1050   1.399       .  A
C1049      H1053   1.084       .  S
C1050      O1054   1.373       .  S
O1052      H1056   0.992       .  S
O1054      H1055   0.992       .  S
