geometry optimzed in LAMMPS
_audit_creation_date              2020-12-01 
_audit_creation_method            'lammps2cif' 
_symmetry_space_group_name_H-M    'P1' 
_symmetry_Int_Tables_number       1 
_symmetry_cell_setting            triclinic 
loop_ 
_symmetry_equiv_pos_as_xyz 
  x,y,z 
_cell_length_a                    30.11682271 
_cell_length_b                    36.65622802671982 
_cell_length_c                    36.079036455716285 
_cell_angle_alpha                 89.9455039235599 
_cell_angle_beta                  90.15952010872735 
_cell_angle_gamma                 89.98630761918696 
loop_ 
_atom_site_label 
_atom_site_type_symbol 
_atom_site_fract_x 
_atom_site_fract_y 
_atom_site_fract_z 
_atom_site_charge 
O1          O  0.09311276  0.99825708  0.44326611    -0.70700
O2          O  0.08148350  0.99896042  0.05301025    -0.71700
O3          O  0.08947404  0.05425617  0.99800871    -0.60300
O4          O  0.08704665  0.94405268  0.50044693    -0.68800
O5          O  0.16027154  0.94563599  0.50765089    -0.68300
O6          O  0.16266352  0.05462042  0.00582004    -0.59600
O7          O  0.15460064  0.99949680  0.06104548    -0.72100
O8          O  0.16630863  0.99956931  0.45057133    -0.70800
Cu9        Cu  0.08746959  0.99911781  0.99772814     1.04600
Cu10       Cu  0.16120132  0.00071322  0.50607079     1.04300
C11         C  0.13217191  0.99901134  0.42949755     0.95500
C12         C  0.11530020  0.99908243  0.07439521     0.94600
C13         C  0.12029951  0.07238767  0.49963246     0.86700
C14         C  0.12774285  0.92716730  0.00251518     0.93000
O15         O  0.16838426  0.99898166  0.20104457    -0.70700
O16         O  0.15060941  0.00234092  0.31109088    -0.71700
O17         O  0.15896875  0.94572323  0.25802072    -0.60300
O18         O  0.15975355  0.05588378  0.25381086    -0.68800
O19         O  0.08665603  0.05581822  0.24549843    -0.68300
O20         O  0.08584354  0.94583951  0.24983236    -0.59600
O21         O  0.07752196  0.00256286  0.30298728    -0.72100
O22         O  0.09532063  0.99900946  0.19269066    -0.70800
Cu23       Cu  0.16196877  0.00075960  0.25632226     1.04600
Cu24       Cu  0.08377167  0.00083404  0.24749027     1.04300
C25         C  0.13469589  0.99863675  0.17950989     0.95500
C26         C  0.11133900  0.00249317  0.32444255     0.94600
C27         C  0.12224003  0.92857400  0.25470832     0.86700
C28         C  0.12335027  0.07305170  0.24844641     0.93000
C29         C  0.12091312  0.18370404  0.48616883     0.05300
C30         C  0.16147962  0.20225481  0.48403055    -0.10800
C31         C  0.16299331  0.23984808  0.47553213     0.02800
C32         C  0.12257918  0.25810448  0.46841644    -0.09300
C33         C  0.08109876  0.24063855  0.47308317     0.05300
C34         C  0.08109835  0.20303132  0.48188728    -0.08800
H35         H  0.19165558  0.18725087  0.48987908     0.10900
H36         H  0.12364973  0.28611805  0.45924496     0.08400
H37         H  0.05035385  0.18846015  0.48630939     0.08300
C38         C  0.12328188  0.18367710  0.23145412     0.05300
C39         C  0.08293895  0.20244920  0.22841432    -0.10800
C40         C  0.08170561  0.23988842  0.21899953     0.02800
C41         C  0.12258393  0.25775103  0.21248887    -0.09300
C42         C  0.16376915  0.23996507  0.21832259     0.05300
C43         C  0.16333103  0.20251787  0.22729658    -0.08800
H44         H  0.05277105  0.18762107  0.23443861     0.10900
H45         H  0.12245705  0.28573787  0.20316313     0.08400
H46         H  0.19397970  0.18791075  0.23238126     0.08300
C47         C  0.12484491  0.81685973  0.52228362     0.05300
C48         C  0.16458654  0.79750621  0.52718018    -0.10800
C49         C  0.16437748  0.75992271  0.53623527     0.02800
C50         C  0.12273504  0.74267059  0.54083402    -0.09300
C51         C  0.08241932  0.76102029  0.53312141     0.05300
C52         C  0.08423503  0.79848097  0.52433179    -0.08800
H53         H  0.19542493  0.81193108  0.52270673     0.10900
H54         H  0.12158462  0.71465698  0.55000901     0.08400
H55         H  0.05427631  0.81348886  0.51777346     0.08300
C56         C  0.12180098  0.81734656  0.26635103     0.05300
C57         C  0.08180129  0.79800117  0.26785468    -0.10800
C58         C  0.08121821  0.76030650  0.27592962     0.02800
C59         C  0.12220258  0.74287327  0.28309787    -0.09300
C60         C  0.16335862  0.76119630  0.27851456     0.05300
C61         C  0.16217283  0.79887388  0.27040870    -0.08800
H62         H  0.05138468  0.81258208  0.26183822     0.10900
H63         H  0.12170279  0.71485698  0.29219178     0.08400
H64         H  0.19236736  0.81424071  0.26625580     0.08300
C65         C  0.24802752  0.68143910  0.52734326     0.05300
C66         C  0.03849184  0.70354261  0.52025647    -0.10800
C67         C  0.03912629  0.74058959  0.53078395     0.02800
C68         C  0.24830467  0.75588040  0.54397666    -0.09300
C69         C  0.20715445  0.73833015  0.53775965     0.05300
C70         C  0.20779782  0.70053637  0.52989555    -0.08800
H71         H  0.06909968  0.68879093  0.51561713     0.10900
H72         H  0.24856353  0.78398115  0.55284035     0.08400
H73         H  0.17738533  0.68575561  0.52455346     0.08300
C74         C  0.24763727  0.68347318  0.27137471     0.05300
C75         C  0.20773768  0.70269960  0.27317157    -0.10800
C76         C  0.20695140  0.74066512  0.27939266     0.02800
C77         C  0.24825358  0.75883636  0.28392772    -0.09300
C78         C  0.03831181  0.73903372  0.27449509     0.05300
C79         C  0.03764246  0.70166948  0.26458547    -0.08800
H80         H  0.17747826  0.68748954  0.26870681     0.10900
H81         H  0.24856664  0.78728842  0.29136735     0.08400
H82         H  0.06821513  0.68693329  0.25977218     0.08300
C83         C  0.25228508  0.31760714  0.01268966     0.05300
C84         C  0.21138003  0.29932691  0.01447039    -0.10800
C85         C  0.20628535  0.26036561  0.47633019     0.02800
C86         C  0.99731147  0.24420786  0.46433061    -0.09300
C87         C  0.03824171  0.26193434  0.47103313     0.05300
C88         C  0.04161874  0.29757064  0.00317372    -0.08800
H89         H  0.18149832  0.31507392  0.01002261     0.10900
H90         H  0.99726088  0.21591471  0.45614923     0.08400
H91         H  0.07241639  0.31195755  0.99828547     0.08300
C92         C  0.24698156  0.31705496  0.23328129     0.05300
C93         C  0.03648848  0.29846189  0.22551193    -0.10800
C94         C  0.03821418  0.26048416  0.21841718     0.02800
C95         C  0.24785424  0.24362689  0.21163541    -0.09300
C96         C  0.20672183  0.26098783  0.21855551     0.05300
C97         C  0.20712156  0.29799434  0.22905408    -0.08800
H98         H  0.06653859  0.31400263  0.22999455     0.10900
H99         H  0.24790784  0.21594760  0.20143901     0.08400
H100        H  0.17647891  0.31211929  0.23527365     0.08300
O101        O  0.04899010  0.55434665  0.99112137    -0.70700
O102        O  0.04653682  0.44377394  0.98879130    -0.71700
O103        O  0.04544414  0.50422022  0.43982588    -0.60300
O104        O  0.05080183  0.49796893  0.04497215    -0.68800
O105        O  0.23013022  0.50083688  0.06691460    -0.68300
O106        O  0.22432514  0.49970019  0.45125764    -0.59600
O107        O  0.22593393  0.44683302  0.01022242    -0.72100
O108        O  0.22793231  0.55547816  0.01123175    -0.70800
Cu109      Cu  0.03791310  0.50280736  0.49529557     1.04600
Cu110      Cu  0.22525455  0.50115848  0.01071381     1.04300
C111        C  0.26457134  0.57274880  0.01203932     0.95500
C112        C  0.26194321  0.42870862  0.00918345     0.94600
C113        C  0.26361529  0.49975778  0.43780245     0.86700
C114        C  0.26782423  0.49999831  0.08356833     0.93000
O115        O  0.20445303  0.55498720  0.26283698    -0.70700
O116        O  0.20403747  0.44393057  0.25628668    -0.70900
O117        O  0.20307073  0.49660843  0.31475750    -0.60300
O118        O  0.20216526  0.50239290  0.20495974    -0.68800
O119        O  0.02356963  0.50091982  0.18399038    -0.68300
O120        O  0.02510573  0.49969727  0.29678853    -0.59600
O121        O  0.02550978  0.44557469  0.23944727    -0.72100
O122        O  0.02659371  0.55484126  0.24139035    -0.70800
Cu123      Cu  0.20091525  0.49947314  0.25981938     1.04600
Cu124      Cu  0.02782108  0.50022321  0.24034204     1.04300
C125        C  0.24178975  0.57174268  0.26331991     0.95500
C126        C  0.24125925  0.42701679  0.25513094     0.94600
C127        C  0.23921453  0.49662676  0.33314301     0.86700
C128        C  0.23836985  0.50232804  0.18689653     0.93000
C129        C  0.27026530  0.49947780  0.39716397    -0.14200
C130        C  0.23565706  0.49624432  0.37389547    -0.29400
H131        H  0.05230153  0.50576326  0.36674781     0.14800
H132        H  0.20233578  0.49398838  0.38517405     0.15400
C133        C  0.27110790  0.50006293  0.12434557    -0.14200
C134        C  0.23544554  0.50299402  0.14612782    -0.29400
H135        H  0.05128651  0.49685608  0.11658791     0.14800
H136        H  0.20263178  0.50523942  0.13371428     0.15400
C137        C  0.24271788  0.38786761  0.24981197    -0.11100
C138        C  0.24553032  0.35549137  0.24314312    -0.12600
C139        C  0.25919939  0.38954383  0.00851319    -0.11100
C140        C  0.25471827  0.35680123  0.00923022    -0.12600
C141        C  0.24347373  0.61114048  0.26518450    -0.11100
C142        C  0.24634483  0.64407331  0.26733445    -0.12600
C143        C  0.24980855  0.60977203  0.51635750    -0.11100
C144        C  0.24840233  0.64250605  0.52057933    -0.12600
C145        C  0.12371594  0.11227269  0.24465340    -0.11100
C146        C  0.12360519  0.14493327  0.23952890    -0.12600
C147        C  0.12178110  0.88928162  0.25704218    -0.11100
C148        C  0.12154834  0.85641896  0.26035252    -0.12600
C149        C  0.10451220  0.00211605  0.36494690    -0.14200
C150        C  0.13859863  0.99957586  0.38897589    -0.29400
H151        H  0.07064366  0.00344912  0.37516148     0.14800
H152        H  0.17245197  0.99832202  0.37871186     0.15400
C153        C  0.10817081  0.99880138  0.11478573    -0.14200
C154        C  0.14196943  0.99812730  0.13912922    -0.29400
H155        H  0.07412915  0.99928549  0.12468478     0.14800
H156        H  0.17601774  0.99763516  0.12924948     0.15400
C157        C  0.11979170  0.11177266  0.49685281    -0.11100
C158        C  0.12011526  0.14464037  0.49291930    -0.12600
C159        C  0.12927064  0.85506277  0.00830406    -0.11100
C160        C  0.12840781  0.88786394  0.00449327    -0.12600
O161        O  0.09827776  0.99944876  0.94300027    -0.70700
O162        O  0.07766825  0.00034619  0.55378560    -0.71700
O163        O  0.08401849  0.05448221  0.49684104    -0.60300
O164        O  0.09088336  0.94396852  0.99818089    -0.68800
O165        O  0.16406047  0.94479559  0.00600810    -0.68300
O166        O  0.15723005  0.05577695  0.50415263    -0.59600
O167        O  0.15088010  0.00157682  0.56100656    -0.72100
O168        O  0.17145577  0.99994278  0.95058219    -0.70800
Cu169      Cu  0.08288617  0.99922507  0.49830379     1.04600
Cu170      Cu  0.16575309  0.99972475  0.00610428     1.04300
C171        C  0.13739866  0.00002634  0.92940065     0.95500
C172        C  0.11184030  0.00074960  0.57480834     0.94600
C173        C  0.12596396  0.07164963  0.00191262     0.86700
C174        C  0.12408744  0.92761690  0.50522024     0.93000
O175        O  0.16838520  0.99769471  0.70032253    -0.70700
O176        O  0.15405010  0.00246236  0.81070057    -0.71700
O177        O  0.16273097  0.94512790  0.75867393    -0.60300
O178        O  0.15978687  0.05511535  0.75255002    -0.68800
O179        O  0.08648212  0.05365954  0.74586557    -0.68300
O180        O  0.08944633  0.94349923  0.75187007    -0.59600
O181        O  0.08076861  0.00097743  0.80396390    -0.72100
O182        O  0.09510995  0.99638946  0.69355042    -0.70800
Cu183      Cu  0.16378385  0.00015194  0.75576764     1.04600
Cu184      Cu  0.08537916  0.99854637  0.74855029     1.04300
C185        C  0.13403677  0.99685795  0.67951625     0.95500
C186        C  0.11513336  0.00207459  0.82473627     0.94600
C187        C  0.12648945  0.92712423  0.75674799     0.86700
C188        C  0.12277169  0.07160192  0.74805010     0.93000
C189        C  0.12600052  0.18318325  0.00839863     0.05300
C190        C  0.16600729  0.20229284  0.01200742    -0.10800
C191        C  0.16645947  0.24020991  0.01944419     0.02800
C192        C  0.12510762  0.25801541  0.02327408    -0.09300
C193        C  0.08453514  0.23981212  0.01618122     0.05300
C194        C  0.08572636  0.20202459  0.00918790    -0.08800
H195        H  0.19643899  0.18714687  0.00824664     0.10900
H196        H  0.12435736  0.28619856  0.03174799     0.08400
H197        H  0.05558669  0.18696169  0.00349160     0.08300
C198        C  0.12360498  0.18278554  0.73444015     0.05300
C199        C  0.08406695  0.20244920  0.72997766    -0.10800
C200        C  0.08449365  0.24014366  0.72151123     0.02800
C201        C  0.12637938  0.25733016  0.71766582    -0.09300
C202        C  0.16666361  0.23852803  0.72485485     0.05300
C203        C  0.16443099  0.20091500  0.73286108    -0.08800
H204        H  0.05317557  0.18798876  0.73398845     0.10900
H205        H  0.12777292  0.28545811  0.70893270     0.08400
H206        H  0.19425501  0.18550526  0.73883802     0.08300
C207        C  0.12942691  0.81616044  0.01532391     0.05300
C208        C  0.16952095  0.79755907  0.02094566    -0.10800
C209        C  0.17009014  0.76000239  0.03000029     0.02800
C210        C  0.12877776  0.74199978  0.03365075    -0.09300
C211        C  0.08817905  0.75964441  0.02505259     0.05300
C212        C  0.08928420  0.79710055  0.01632465    -0.08800
H213        H  0.20004308  0.81263243  0.01724930     0.10900
H214        H  0.12816739  0.71401934  0.04293620     0.08400
H215        H  0.05917489  0.81165166  0.00921514     0.08300
C216        C  0.12751479  0.81645446  0.77404719     0.05300
C217        C  0.08709266  0.79783462  0.77620632    -0.10800
C218        C  0.08558601  0.76027262  0.78463420     0.02800
C219        C  0.12623505  0.74206040  0.79162004    -0.09300
C220        C  0.16782235  0.75969530  0.78690396     0.05300
C221        C  0.16747920  0.79736095  0.77839358    -0.08800
H222        H  0.05700437  0.81281085  0.77002587     0.10900
H223        H  0.12525590  0.71395180  0.80045311     0.08400
H224        H  0.19804229  0.81212013  0.77382380     0.08300
C225        C  0.25669607  0.68338068  0.02405803     0.05300
C226        C  0.04615945  0.70138613  0.01227476    -0.10800
C227        C  0.04543332  0.73855117  0.02195048     0.02800
C228        C  0.25382949  0.75787499  0.03983879    -0.09300
C229        C  0.21347454  0.73933955  0.03281772     0.05300
C230        C  0.21567359  0.70146321  0.02546690    -0.08800
H231        H  0.07728217  0.68708853  0.00866690     0.10900
H232        H  0.25290457  0.78602817  0.04845799     0.08400
H233        H  0.18599149  0.68587238  0.01966774     0.08300
C234        C  0.25143192  0.68128648  0.77763914     0.05300
C235        C  0.21149284  0.70060749  0.78048437    -0.10800
C236        C  0.21105032  0.73850066  0.78767930     0.02800
C237        C  0.25253637  0.75626084  0.79265033    -0.09300
C238        C  0.04205381  0.73988937  0.78299239     0.05300
C239        C  0.04062466  0.70274842  0.77248146    -0.08800
H240        H  0.18099300  0.68575772  0.77581661     0.10900
H241        H  0.25317938  0.78457752  0.80069454     0.08400
H242        H  0.07093065  0.68769018  0.76751393     0.08300
C243        C  0.24843440  0.31571632  0.49047042     0.05300
C244        C  0.20778465  0.29746766  0.48676862    -0.10800
C245        C  0.20966126  0.26121768  0.02102688     0.02800
C246        C  0.00019819  0.24320168  0.01897627    -0.09300
C247        C  0.04158159  0.26055234  0.01348303     0.05300
C248        C  0.03746611  0.29987246  0.47793433    -0.08800
H249        H  0.17757494  0.31224941  0.49290202     0.10900
H250        H  0.99969043  0.21569952  0.02961689     0.08400
H251        H  0.06771195  0.31474166  0.48365086     0.08300
C252        C  0.25250744  0.31396257  0.74006980     0.05300
C253        C  0.04025276  0.29960850  0.72523546    -0.10800
C254        C  0.04151336  0.26152650  0.71867178     0.02800
C255        C  0.25129232  0.24007698  0.71991672    -0.09300
C256        C  0.21053601  0.25840540  0.72632491     0.05300
C257        C  0.21204877  0.29559910  0.73626254    -0.08800
H258        H  0.07029804  0.31467457  0.73114625     0.10900
H259        H  0.25069246  0.21225090  0.71017312     0.08400
H260        H  0.18182422  0.31051978  0.74195178     0.08300
O261        O  0.03564691  0.55786302  0.49697842    -0.70700
O262        O  0.03487724  0.44768237  0.49328397    -0.71700
O263        O  0.04749270  0.50009356  0.93493515    -0.60300
O264        O  0.02548134  0.50158539  0.54996856    -0.68800
O265        O  0.20614715  0.49700705  0.56155375    -0.68300
O266        O  0.22745374  0.50127275  0.95436761    -0.59600
O267        O  0.21475477  0.44359145  0.50458967    -0.72100
O268        O  0.21455510  0.55325641  0.50810501    -0.70800
Cu269      Cu  0.05098217  0.49900310  0.98985144     1.04600
Cu270      Cu  0.21243769  0.49840509  0.50607052     1.04300
C271        C  0.25082689  0.57054895  0.51320727     0.95500
C272        C  0.25124050  0.42612040  0.50756642     0.94600
C273        C  0.26475297  0.50113424  0.93733281     0.86700
C274        C  0.24001057  0.49689904  0.58295705     0.93000
O275        O  0.21321919  0.55273035  0.75924599    -0.70700
O276        O  0.21391253  0.44204430  0.75454212    -0.70900
O277        O  0.20465055  0.49550864  0.81213018    -0.60300
O278        O  0.22160098  0.49922471  0.70169142    -0.68800
O279        O  0.03971739  0.50510894  0.68929465    -0.68300
O280        O  0.02289471  0.49981337  0.79929229    -0.59600
O281        O  0.03192761  0.44758914  0.74141042    -0.72100
O282        O  0.03200275  0.55723019  0.74760508    -0.70800
Cu283      Cu  0.21076863  0.49736782  0.75662516     1.04600
Cu284      Cu  0.03409002  0.50242887  0.74463457     1.04300
C285        C  0.24979969  0.56985612  0.76406134     0.95500
C286        C  0.25080351  0.42489950  0.75713233     0.94600
C287        C  0.23871813  0.49567606  0.83324625     0.86700
C288        C  0.26073913  0.49942564  0.68805913     0.93000
C289        C  0.26766322  0.50043832  0.89662052    -0.14200
C290        C  0.23269062  0.49640145  0.87389620    -0.29400
H291        H  0.04654529  0.50172263  0.86464230     0.14800
H292        H  0.19938112  0.49418432  0.88515737     0.15400
C293        C  0.23323793  0.49712467  0.62346606    -0.14200
C294        C  0.26730393  0.49943516  0.64754046    -0.29400
H295        H  0.94473057  0.50048218  0.61335253     0.14800
H296        H  0.30116615  0.50087046  0.63732173     0.15400
C297        C  0.25176602  0.38554650  0.75333687    -0.11100
C298        C  0.25268963  0.35280734  0.74827988    -0.12600
C299        C  0.25085815  0.38689943  0.50422042    -0.11100
C300        C  0.24956336  0.35427950  0.49912241    -0.12600
C301        C  0.24989200  0.60924524  0.76730245    -0.11100
C302        C  0.25068998  0.64210893  0.77137300    -0.12600
C303        C  0.26316259  0.61190352  0.01432556    -0.11100
C304        C  0.25930639  0.64451815  0.01788412    -0.12600
C305        C  0.12211137  0.11089664  0.74482443    -0.11100
C306        C  0.12236261  0.14373140  0.74088683    -0.12600
C307        C  0.12734266  0.88793616  0.76105395    -0.11100
C308        C  0.12783360  0.85528214  0.76628875    -0.12600
C309        C  0.10921017  0.00236256  0.86524612    -0.14200
C310        C  0.14371365  0.00084352  0.88891400    -0.29400
H311        H  0.07546070  0.00304643  0.87580250     0.14800
H312        H  0.17747672  0.00007136  0.87840155     0.15400
C313        C  0.10562289  0.99989523  0.61532616    -0.14200
C314        C  0.14001316  0.99705732  0.63897667    -0.29400
H315        H  0.07190532  0.00129275  0.62587709     0.14800
H316        H  0.17371836  0.99567203  0.62839607     0.15400
C317        C  0.12583101  0.11097916  0.00232327    -0.11100
C318        C  0.12613478  0.14393999  0.00401622    -0.12600
C319        C  0.12551171  0.85566399  0.51424094    -0.11100
C320        C  0.12500522  0.88834562  0.50903975    -0.12600
O321        O  0.32209930  0.99536055  0.43989956    -0.70700
O322        O  0.32253958  0.00099814  0.04866391    -0.71700
O323        O  0.32501769  0.05527370  0.99219393    -0.60300
O324        O  0.32492834  0.94145065  0.49742534    -0.68800
O325        O  0.39860716  0.94233350  0.49546090    -0.68300
O326        O  0.39875826  0.05444370  0.99367511    -0.59600
O327        O  0.39620608  0.00072849  0.05085275    -0.72100
O328        O  0.39573299  0.99657828  0.43798552    -0.70800
Cu329      Cu  0.32193521  0.99968674  0.99360336     1.04600
Cu330      Cu  0.40035070  0.99691785  0.49432114     1.04300
C331        C  0.35799361  0.99616388  0.42137561     0.95500
C332        C  0.35846165  0.00086844  0.06730213     0.94600
C333        C  0.36257660  0.06934915  0.49246817     0.86700
C334        C  0.36389581  0.92790931  0.99633787     0.93000
O335        O  0.42313931  0.99767891  0.18960404    -0.70700
O336        O  0.42272610  0.00345895  0.29956469    -0.71700
O337        O  0.42110953  0.94484996  0.24799951    -0.60300
O338        O  0.42050421  0.05625619  0.24107193    -0.68800
O339        O  0.34682339  0.05488132  0.24192977    -0.68300
O340        O  0.34742440  0.94569440  0.24650022    -0.59600
O341        O  0.34907272  0.00189554  0.30066871    -0.72100
O342        O  0.34947262  0.99853615  0.18786570    -0.70800
Cu343      Cu  0.42441919  0.00058412  0.24457506     1.04600
Cu344      Cu  0.34559452  0.00026351  0.24423099     1.04300
C345        C  0.38705810  0.99778489  0.17118854     0.95500
C346        C  0.38654905  0.00281387  0.31768250     0.94600
C347        C  0.38376303  0.92802525  0.24853716     0.86700
C348        C  0.38298136  0.07280371  0.24015175     0.93000
C349        C  0.37055252  0.18071536  0.48190513     0.05300
C350        C  0.41136670  0.19904529  0.47867495    -0.10800
C351        C  0.41283334  0.23713046  0.47202148     0.02800
C352        C  0.37200839  0.25574788  0.46756404    -0.09300
C353        C  0.33082989  0.23825833  0.47355703     0.05300
C354        C  0.33094110  0.20046898  0.48058067    -0.08800
H355        H  0.44161149  0.18352022  0.48233275     0.10900
H356        H  0.37225614  0.28411694  0.45955692     0.08400
H357        H  0.30031742  0.18602075  0.48600000     0.08300
C358        C  0.37450644  0.18384387  0.22539391     0.05300
C359        C  0.33380498  0.20253085  0.22358891    -0.10800
C360        C  0.33227198  0.24061780  0.21667137     0.02800
C361        C  0.37302660  0.25896903  0.21074560    -0.09300
C362        C  0.41435243  0.24095731  0.21483934     0.05300
C363        C  0.41415268  0.20318733  0.22199882    -0.08800
H364        H  0.30373098  0.18727474  0.22881081     0.10900
H365        H  0.37261894  0.28747390  0.20322143     0.08400
H366        H  0.44486762  0.18846314  0.22634032     0.08300
C367        C  0.37075646  0.81481043  0.51795033     0.05300
C368        C  0.41169171  0.79659016  0.52029671    -0.10800
C369        C  0.41395956  0.75946378  0.53113897     0.02800
C370        C  0.37372605  0.74171768  0.54043513    -0.09300
C371        C  0.33202744  0.75890339  0.53549976     0.05300
C372        C  0.33146543  0.79576074  0.52449295    -0.08800
H373        H  0.44130948  0.81138738  0.51254483     0.10900
H374        H  0.37477269  0.71423843  0.55115087     0.08400
H375        H  0.30042802  0.80985921  0.51963069     0.08300
C376        C  0.37537402  0.81712834  0.26438593     0.05300
C377        C  0.33453806  0.79902359  0.26870629    -0.10800
C378        C  0.33293670  0.76138670  0.27788409     0.02800
C379        C  0.37385591  0.74315984  0.28374302    -0.09300
C380        C  0.41512048  0.76014927  0.27645482     0.05300
C381        C  0.41491834  0.79742458  0.26686090    -0.08800
H382        H  0.30443361  0.81440732  0.26392823     0.10900
H383        H  0.37362017  0.71551363  0.29392049     0.08400
H384        H  0.44539309  0.81157818  0.26030662     0.08300
C385        C  0.49833300  0.68163636  0.51981793     0.05300
C386        C  0.28827576  0.70020401  0.53023968    -0.10800
C387        C  0.28920113  0.73785325  0.53794502     0.02800
C388        C  0.49865531  0.75704993  0.53253464    -0.09300
C389        C  0.45741640  0.73866851  0.53004091     0.05300
C390        C  0.45813245  0.70050965  0.52401767    -0.08800
H391        H  0.31863653  0.68529060  0.52508563     0.10900
H392        H  0.49893762  0.78557851  0.53981653     0.08400
H393        H  0.42759663  0.68519230  0.52146773     0.08300
C394        C  0.49777651  0.68155907  0.26555004     0.05300
C395        C  0.45793103  0.70073104  0.26975193    -0.10800
C396        C  0.45794747  0.73874567  0.27599753     0.02800
C397        C  0.49951768  0.75656206  0.27891587    -0.09300
C398        C  0.28932083  0.74058608  0.27899109     0.05300
C399        C  0.28808062  0.70237279  0.27302770    -0.08800
H400        H  0.42719830  0.68570383  0.26715433     0.10900
H401        H  0.50064531  0.78484975  0.28701653     0.08400
H402        H  0.31820232  0.68694587  0.26868895     0.08300
C403        C  0.49941838  0.31579208  0.01087904     0.05300
C404        C  0.45938834  0.29650385  0.01231782    -0.10800
C405        C  0.45626136  0.25790365  0.47205003     0.02800
C406        C  0.24677452  0.24244399  0.46890799    -0.09300
C407        C  0.28816840  0.25957497  0.47521614     0.05300
C408        C  0.29178026  0.29792689  0.01445322    -0.08800
H409        H  0.42891793  0.31169002  0.00855668     0.10900
H410        H  0.24593282  0.21489666  0.45836678     0.08400
H411        H  0.32257887  0.31238754  0.00975618     0.08300
C412        C  0.49979824  0.31625884  0.23129093     0.05300
C413        C  0.28758311  0.29868865  0.22872182    -0.10800
C414        C  0.28882299  0.26143712  0.21820621     0.02800
C415        C  0.49820112  0.24368298  0.20751324    -0.09300
C416        C  0.45758199  0.26158436  0.21512650     0.05300
C417        C  0.45914588  0.29835607  0.22652040    -0.08800
H418        H  0.31789476  0.31345975  0.23452554     0.10900
H419        H  0.49779419  0.21638760  0.19629396     0.08400
H420        H  0.42901314  0.31309158  0.23295768     0.08300
O421        O  0.30170813  0.55571337  0.01156091    -0.70700
O422        O  0.29965373  0.44487466  0.00896944    -0.71700
O423        O  0.29740141  0.49979075  0.45923963    -0.60300
O424        O  0.30379115  0.49916730  0.06518805    -0.68800
O425        O  0.45562847  0.50083413  0.05721999    -0.68300
O426        O  0.47143943  0.49909099  0.44749055    -0.59600
O427        O  0.46409481  0.44515005  0.00273567    -0.72100
O428        O  0.46461945  0.55529411  0.00150497    -0.70800
Cu429      Cu  0.29064797  0.49827540  0.51471445     1.04600
Cu430      Cu  0.46195778  0.50018308  0.00179775     1.04300
C431        C  0.50109928  0.57257340  0.00582001     0.95500
C432        C  0.50050528  0.42774023  0.00691288     0.94600
C433        C  0.51044097  0.49914567  0.43355700     0.86700
C434        C  0.48942712  0.50086233  0.07867258     0.93000
O435        O  0.46205359  0.55269724  0.25422236    -0.70700
O436        O  0.46353259  0.44293669  0.24999251    -0.70900
O437        O  0.45488197  0.49593181  0.30752038    -0.60300
O438        O  0.47091766  0.49979501  0.19717384    -0.68800
O439        O  0.27586028  0.50134810  0.20384986    -0.68300
O440        O  0.27675385  0.49731156  0.31647438    -0.59600
O441        O  0.27774037  0.44452162  0.25743750    -0.72100
O442        O  0.27816228  0.55398964  0.26227868    -0.70800
Cu443      Cu  0.46029316  0.49779925  0.25203464     1.04600
Cu444      Cu  0.27976613  0.49927126  0.26007336     1.04300
C445        C  0.49843032  0.57010346  0.25844060     0.95500
C446        C  0.50038226  0.42586361  0.25246822     0.94600
C447        C  0.48894978  0.49609196  0.32867453     0.86700
C448        C  0.51007068  0.50037378  0.18358669     0.93000
C449        C  0.51668176  0.49900520  0.39303475    -0.14200
C450        C  0.48248997  0.49621323  0.36919147    -0.29400
H451        H  0.30378008  0.50169482  0.38633378     0.14800
H452        H  0.44872876  0.49443202  0.37958352     0.15400
C453        C  0.48253988  0.50103442  0.11909770    -0.14200
C454        C  0.51667928  0.50118005  0.14315719    -0.29400
H455        H  0.30393841  0.49775557  0.13671589     0.14800
H456        H  0.55060679  0.50148185  0.13298426     0.15400
C457        C  0.50094705  0.38679123  0.24798197    -0.11100
C458        C  0.50067195  0.35440798  0.24154447    -0.12600
C459        C  0.50002702  0.38832123  0.00724516    -0.11100
C460        C  0.49940733  0.35527764  0.00814081    -0.12600
C461        C  0.49779371  0.60937415  0.25976035    -0.11100
C462        C  0.49739690  0.64230563  0.26160823    -0.12600
C463        C  0.49982446  0.60925587  0.51193391    -0.11100
C464        C  0.49872689  0.64223521  0.51499201    -0.12600
C465        C  0.38061813  0.11208535  0.23633395    -0.11100
C466        C  0.37659551  0.14474948  0.23191383    -0.12600
C467        C  0.38173549  0.88871377  0.25228649    -0.11100
C468        C  0.37766157  0.85607655  0.25693301    -0.12600
C469        C  0.38962057  0.00256003  0.35856607    -0.14200
C470        C  0.35449172  0.99696131  0.38050136    -0.29400
H471        H  0.42229098  0.00607569  0.37092730     0.14800
H472        H  0.32179394  0.99345111  0.36819549     0.15400
C473        C  0.35493071  0.00070475  0.10812473    -0.14200
C474        C  0.39033296  0.99745856  0.13035932    -0.29400
H475        H  0.32200392  0.00296550  0.12016282     0.14800
H476        H  0.42324009  0.99518451  0.11828464     0.15400
C477        C  0.36464740  0.10869837  0.49022609    -0.11100
C478        C  0.36844862  0.14149241  0.48715351    -0.12600
C479        C  0.37196551  0.85655443  0.00494390    -0.11100
C480        C  0.36673865  0.88883964  0.99962314    -0.12600
O481        O  0.32435534  0.99837373  0.93860225    -0.70700
O482        O  0.32410804  0.99874049  0.55011726    -0.71700
O483        O  0.32514919  0.05269388  0.49294177    -0.60300
O484        O  0.32620664  0.94415679  0.99537992    -0.68800
O485        O  0.39993982  0.94595195  0.99551118    -0.68300
O486        O  0.39886014  0.05151578  0.49344065    -0.59600
O487        O  0.39778995  0.99729573  0.55070409    -0.72100
O488        O  0.39805062  0.99954772  0.93818552    -0.70800
Cu489      Cu  0.32151738  0.99705986  0.49507088     1.04600
Cu490      Cu  0.40082735  0.00020052  0.99453519     1.04300
C491        C  0.36079554  0.99882129  0.92085333     0.95500
C492        C  0.36060089  0.99788188  0.56796661     0.94600
C493        C  0.36237160  0.07203316  0.99268274     0.86700
C494        C  0.36229036  0.92468598  0.49771690     0.93000
O495        O  0.42770596  0.99255470  0.68952615    -0.70700
O496        O  0.42789209  0.99955318  0.79958817    -0.71700
O497        O  0.42564230  0.94039344  0.74882299    -0.60300
O498        O  0.42585827  0.05173423  0.74071090    -0.68800
O499        O  0.35216770  0.05072209  0.74153030    -0.68300
O500        O  0.35195403  0.94164652  0.74763948    -0.59600
O501        O  0.35420719  0.99877731  0.80062416    -0.72100
O502        O  0.35403660  0.99373578  0.68824184    -0.70800
Cu503      Cu  0.42936060  0.99603293  0.74460676     1.04600
Cu504      Cu  0.35052332  0.99619516  0.74445468     1.04300
C505        C  0.39143750  0.99276653  0.67132738     0.95500
C506        C  0.39165327  0.99978812  0.81763728     0.94600
C507        C  0.38815658  0.92382687  0.75002142     0.86700
C508        C  0.38844998  0.06847968  0.73994702     0.93000
C509        C  0.37221025  0.18255647  0.00322181     0.05300
C510        C  0.41335776  0.20035503  0.00644644    -0.10800
C511        C  0.41554119  0.23746652  0.01720806     0.02800
C512        C  0.37531884  0.25533733  0.02575606    -0.09300
C513        C  0.33376393  0.23873043  0.01930606     0.05300
C514        C  0.33297340  0.20205989  0.00808683    -0.08800
H515        H  0.44315066  0.18518878  0.99999044     0.10900
H516        H  0.37627680  0.28246215  0.03730713     0.08400
H517        H  0.30188334  0.18829749  0.00250640     0.08300
C518        C  0.37926229  0.17992662  0.72874038     0.05300
C519        C  0.33827615  0.19839710  0.72876639    -0.10800
C520        C  0.33613439  0.23659115  0.72264487     0.02800
C521        C  0.37642375  0.25520031  0.71549810    -0.09300
C522        C  0.41805210  0.23751881  0.71801880     0.05300
C523        C  0.41859591  0.19963801  0.72451441    -0.08800
H524        H  0.30852757  0.18288872  0.73450363     0.10900
H525        H  0.37549101  0.28369973  0.70801782     0.08400
H526        H  0.44968514  0.18509586  0.72738800     0.08300
C527        C  0.37542991  0.81831446  0.01432143     0.05300
C528        C  0.41661629  0.80034175  0.01563832    -0.10800
C529        C  0.41939223  0.76329588  0.02655791     0.02800
C530        C  0.37970477  0.74568529  0.03738920    -0.09300
C531        C  0.33772663  0.76240336  0.03274747     0.05300
C532        C  0.33649313  0.79911894  0.02159516    -0.08800
H533        H  0.44589581  0.81519123  0.00712036     0.10900
H534        H  0.38140617  0.71849803  0.04877784     0.08400
H535        H  0.30522749  0.81300567  0.01717080     0.08300
C536        C  0.37938563  0.81381187  0.77077743     0.05300
C537        C  0.33859725  0.79587689  0.77576213    -0.10800
C538        C  0.33704198  0.75848958  0.78581514     0.02800
C539        C  0.37794354  0.74022548  0.79187883    -0.09300
C540        C  0.41917996  0.75721445  0.78449192     0.05300
C541        C  0.41892306  0.79424648  0.77398763    -0.08800
H542        H  0.30842412  0.81106195  0.77055900     0.10900
H543        H  0.37771965  0.71254247  0.80205840     0.08400
H544        H  0.44941118  0.80821517  0.76702890     0.08300
C545        C  0.50139274  0.68446495  0.01248544     0.05300
C546        C  0.29603390  0.70306443  0.02754308    -0.10800
C547        C  0.29547230  0.74069810  0.03490956     0.02800
C548        C  0.50409480  0.75991060  0.02469337    -0.09300
C549        C  0.46239608  0.74213044  0.02374340     0.05300
C550        C  0.46194285  0.70398080  0.01778173    -0.08800
H551        H  0.32694667  0.68874394  0.02300611     0.10900
H552        H  0.50527578  0.78849445  0.03168960     0.08400
H553        H  0.43099773  0.68909425  0.01625112     0.08300
C554        C  0.50308307  0.67967544  0.77240564     0.05300
C555        C  0.46283705  0.69824612  0.77728587    -0.10800
C556        C  0.46217398  0.73610712  0.78443221     0.02800
C557        C  0.50332845  0.75440058  0.78797173    -0.09300
C558        C  0.29339143  0.73791882  0.78703269     0.05300
C559        C  0.29193035  0.69999892  0.77987711    -0.08800
H560        H  0.43226641  0.68304763  0.77423980     0.10900
H561        H  0.50382984  0.78257197  0.79661184     0.08400
H562        H  0.32205066  0.68475072  0.77482872     0.08300
C563        C  0.49790633  0.31413956  0.48457885     0.05300
C564        C  0.45759899  0.29515390  0.48235985    -0.10800
C565        C  0.45882529  0.25826462  0.01761357     0.02800
C566        C  0.25031223  0.24281782  0.02688383    -0.09300
C567        C  0.29152845  0.26021644  0.02126022     0.05300
C568        C  0.28822121  0.29660353  0.48579291    -0.08800
H569        H  0.42755679  0.30961688  0.48962071     0.10900
H570        H  0.25011780  0.21467078  0.03555480     0.08400
H571        H  0.31903218  0.31076843  0.49136192     0.08300
C572        C  0.50291024  0.31406841  0.73084710     0.05300
C573        C  0.29246787  0.29476740  0.73578197    -0.10800
C574        C  0.29277636  0.25742849  0.72566181     0.02800
C575        C  0.50121504  0.24150701  0.70680191    -0.09300
C576        C  0.46089110  0.25867220  0.71675629     0.05300
C577        C  0.46246779  0.29539396  0.72841014    -0.08800
H578        H  0.32313224  0.30919637  0.74113863     0.10900
H579        H  0.50054288  0.21423448  0.69553090     0.08400
H580        H  0.43256217  0.30953763  0.73668254     0.08300
O581        O  0.28767455  0.55345583  0.51631286    -0.70700
O582        O  0.28791368  0.44304479  0.51251842    -0.71700
O583        O  0.30118553  0.50135895  0.95529714    -0.60300
O584        O  0.27925362  0.49686448  0.56954260    -0.68800
O585        O  0.45708487  0.49564795  0.55815201    -0.68300
O586        O  0.47361175  0.49927449  0.94700169    -0.59600
O587        O  0.46373196  0.44242930  0.50055762    -0.72100
O588        O  0.46399602  0.55253568  0.50491130    -0.70800
Cu589      Cu  0.30416490  0.50025774  0.01018029     1.04600
Cu590      Cu  0.46154229  0.49744909  0.50257228     1.04300
C591        C  0.50046741  0.56980085  0.50931996     0.95500
C592        C  0.50025283  0.42483236  0.50265373     0.94600
C593        C  0.51298418  0.49875229  0.93382226     0.86700
C594        C  0.49149423  0.49535325  0.57893674     0.93000
O595        O  0.46720523  0.55126264  0.75492861    -0.70700
O596        O  0.46710358  0.44119313  0.75001361    -0.70900
O597        O  0.45917770  0.49416038  0.80763215    -0.60300
O598        O  0.47502901  0.49804865  0.69746307    -0.68800
O599        O  0.29477167  0.49927167  0.70925770    -0.68300
O600        O  0.27782379  0.49573120  0.81946266    -0.59600
O601        O  0.28707933  0.44228489  0.76216645    -0.72100
O602        O  0.28641944  0.55245005  0.76666879    -0.70800
Cu603      Cu  0.46460500  0.49618342  0.75228664     1.04600
Cu604      Cu  0.28903137  0.49740700  0.76468768     1.04300
C605        C  0.50376658  0.56833923  0.75967997     0.95500
C606        C  0.50376179  0.42379153  0.75231491     0.94600
C607        C  0.49317412  0.49394719  0.82883367     0.86700
C608        C  0.51407074  0.49803521  0.68367343     0.93000
C609        C  0.52019636  0.49726879  0.89343968    -0.14200
C610        C  0.48637269  0.49430230  0.86927809    -0.29400
H611        H  0.30077598  0.50269034  0.88492000     0.14800
H612        H  0.45243764  0.49299424  0.87935142     0.15400
C613        C  0.48568415  0.49542776  0.61950666    -0.14200
C614        C  0.52018790  0.49788395  0.64312209    -0.29400
H615        H  0.19936546  0.49569837  0.63365931     0.14800
H616        H  0.55387524  0.49937952  0.63252019     0.15400
C617        C  0.50393193  0.38467067  0.74766781    -0.11100
C618        C  0.50363567  0.35226179  0.74117116    -0.12600
C619        C  0.49979685  0.38551150  0.49871907    -0.11100
C620        C  0.49863788  0.35284630  0.49331164    -0.12600
C621        C  0.50355012  0.60766910  0.76267845    -0.11100
C622        C  0.50326531  0.64053098  0.76642189    -0.12600
C623        C  0.50081491  0.61202975  0.00659606    -0.11100
C624        C  0.50057679  0.64505822  0.00848599    -0.12600
C625        C  0.38628554  0.10784760  0.73698644    -0.11100
C626        C  0.38199342  0.14063737  0.73382268    -0.12600
C627        C  0.38583415  0.88470756  0.75524674    -0.11100
C628        C  0.38164448  0.85235538  0.76150734    -0.12600
C629        C  0.39435204  0.00082954  0.85847101    -0.14200
C630        C  0.35837548  0.99852122  0.88000870    -0.29400
H631        H  0.42705768  0.00287113  0.87110650     0.14800
H632        H  0.32569962  0.99642390  0.86732265     0.15400
C633        C  0.35830485  0.99733406  0.60883744    -0.14200
C634        C  0.39404042  0.99252045  0.63044396    -0.29400
H635        H  0.32583127  0.00056696  0.62148638     0.14800
H636        H  0.42655225  0.98932548  0.61785743     0.15400
C637        C  0.36444720  0.11126082  0.99305002    -0.11100
C638        C  0.36920138  0.14388034  0.99593323    -0.12600
C639        C  0.36818408  0.85315479  0.50817395    -0.11100
C640        C  0.36429262  0.88552077  0.50205789    -0.12600
O641        O  0.59768696  0.99784147  0.42752219    -0.70700
O642        O  0.58330667  0.99846294  0.03700530    -0.71700
O643        O  0.59167408  0.05457435  0.98320021    -0.60300
O644        O  0.58866012  0.94441823  0.48466903    -0.68800
O645        O  0.66194314  0.94336700  0.49172435    -0.68300
O646        O  0.66481231  0.05488503  0.99140031    -0.59600
O647        O  0.65637262  0.99879236  0.04534565    -0.72100
O648        O  0.67091792  0.99702446  0.43467623    -0.70800
Cu649      Cu  0.58971599  0.99962032  0.98169112     1.04600
Cu650      Cu  0.66585889  0.99842953  0.49015256     1.04300
C651        C  0.63671579  0.99724463  0.41368202     0.95500
C652        C  0.61700628  0.99826693  0.05853888     0.94600
C653        C  0.62795625  0.07118736  0.48391837     0.86700
C654        C  0.62945772  0.92757612  0.98535934     0.93000
O655        O  0.67043288  0.99740792  0.18500525    -0.70700
O656        O  0.65408820  0.99913538  0.29515228    -0.71700
O657        O  0.66203097  0.94313458  0.24129940    -0.60300
O658        O  0.66167650  0.05361778  0.23886629    -0.68800
O659        O  0.58849956  0.05300852  0.23113434    -0.68300
O660        O  0.58883211  0.94313031  0.23361562    -0.59600
O661        O  0.58090252  0.99896663  0.28763598    -0.72100
O662        O  0.59730102  0.99710779  0.17709773    -0.70800
Cu663      Cu  0.66464065  0.99834712  0.24033014     1.04600
Cu664      Cu  0.58635451  0.99804972  0.23208163     1.04300
C665        C  0.63656693  0.99711632  0.16367130     0.95500
C666        C  0.61498199  0.99904072  0.30880228     0.94600
C667        C  0.62528773  0.92591431  0.23819694     0.86700
C668        C  0.62489856  0.07055943  0.23446281     0.93000
C669        C  0.62523434  0.18252898  0.47282827     0.05300
C670        C  0.66453164  0.20246661  0.46886279    -0.10800
C671        C  0.66373364  0.24029220  0.46115708     0.02800
C672        C  0.62175087  0.25722269  0.45723372    -0.09300
C673        C  0.58174766  0.23832547  0.46473493     0.05300
C674        C  0.58425463  0.20052685  0.47190263    -0.08800
H675        H  0.69547842  0.18805601  0.47285551     0.10900
H676        H  0.62007171  0.28536273  0.44863526     0.08400
H677        H  0.55468375  0.18488685  0.47791181     0.08300
C678        C  0.62284866  0.18202932  0.22383150     0.05300
C679        C  0.58262180  0.20107829  0.22110872    -0.10800
C680        C  0.58207531  0.23889058  0.21354384     0.02800
C681        C  0.62299401  0.25664583  0.20746833    -0.09300
C682        C  0.66398774  0.23869388  0.21315118     0.05300
C683        C  0.66304619  0.20097833  0.22125743    -0.08800
H684        H  0.55204283  0.18633780  0.22591426     0.10900
H685        H  0.62264022  0.28474295  0.19856957     0.08400
H686        H  0.69329237  0.18592315  0.22644824     0.08300
C687        C  0.62235793  0.81631432  0.50683005     0.05300
C688        C  0.66280425  0.79776250  0.50908619    -0.10800
C689        C  0.66436961  0.76055660  0.51867760     0.02800
C690        C  0.62408272  0.74249735  0.52668437    -0.09300
C691        C  0.58246329  0.76006341  0.52233599     0.05300
C692        C  0.58247815  0.79742958  0.51248506    -0.08800
H693        H  0.69295141  0.81241628  0.50237283     0.10900
H694        H  0.62546440  0.71459986  0.53623717     0.08400
H695        H  0.55170886  0.81205356  0.50817585     0.08300
C696        C  0.62331268  0.81501625  0.25246689     0.05300
C697        C  0.58321522  0.79641603  0.25800403    -0.10800
C698        C  0.58283094  0.75902738  0.26777228     0.02800
C699        C  0.62409087  0.74111389  0.27211237    -0.09300
C700        C  0.66449050  0.75878215  0.26404545     0.05300
C701        C  0.66348211  0.79603536  0.25447681    -0.08800
H702        H  0.55257332  0.81129119  0.25390062     0.10900
H703        H  0.62506771  0.71325430  0.28182062     0.08400
H704        H  0.69383002  0.81044274  0.24785138     0.08300
C705        C  0.74997078  0.68559663  0.50198088     0.05300
C706        C  0.53837373  0.70100028  0.51948492    -0.10800
C707        C  0.53943369  0.73905381  0.52559269     0.02800
C708        C  0.74810892  0.75830708  0.52558058    -0.09300
C709        C  0.70769939  0.74029567  0.51774042     0.05300
C710        C  0.70926927  0.70354398  0.50634639    -0.08800
H711        H  0.56841550  0.68602900  0.51342001     0.10900
H712        H  0.74714515  0.78575700  0.53642802     0.08400
H713        H  0.67898622  0.68891844  0.49989646     0.08300
C714        C  0.74911971  0.68279337  0.24917534     0.05300
C715        C  0.70860240  0.70115693  0.25274931    -0.10800
C716        C  0.70739121  0.73808788  0.26354890     0.02800
C717        C  0.74778956  0.75582022  0.27158677    -0.09300
C718        C  0.53977889  0.73833182  0.27123888     0.05300
C719        C  0.53811885  0.70039722  0.26483897    -0.08800
H720        H  0.67822810  0.68666792  0.24628328     0.10900
H721        H  0.74695982  0.78331826  0.28230286     0.08400
H722        H  0.56786312  0.68512030  0.25851751     0.08300
C723        C  0.74868445  0.31679330  0.99734452     0.05300
C724        C  0.70879539  0.29782808  0.00218034    -0.10800
C725        C  0.70631299  0.26220826  0.46015821     0.02800
C726        C  0.49696086  0.24045144  0.46369406    -0.09300
C727        C  0.53825208  0.25849616  0.46811882     0.05300
C728        C  0.53966498  0.29687008  0.01198510    -0.08800
H729        H  0.67790803  0.31207329  0.99699393     0.10900
H730        H  0.49646986  0.21271425  0.45370384     0.08400
H731        H  0.56973132  0.31241501  0.00787828     0.08300
C732        C  0.74832425  0.31644862  0.22253329     0.05300
C733        C  0.53957768  0.29711020  0.22657188    -0.10800
C734        C  0.53949746  0.26036413  0.21493527     0.02800
C735        C  0.74823099  0.24140570  0.20874220    -0.09300
C736        C  0.70717360  0.25958236  0.21313783     0.05300
C737        C  0.70806736  0.29757514  0.21982283    -0.08800
H738        H  0.57039920  0.31091544  0.23303438     0.10900
H739        H  0.74863712  0.21310041  0.20064265     0.08400
H740        H  0.67779716  0.31290178  0.22377953     0.08300
O741        O  0.53767898  0.55530561  0.00995900    -0.70700
O742        O  0.53721263  0.44483700  0.01088522    -0.71700
O743        O  0.54470189  0.49899442  0.45446145    -0.60300
O744        O  0.52871908  0.50058006  0.06538478    -0.68800
O745        O  0.70532503  0.50088246  0.03119079    -0.68300
O746        O  0.72147754  0.50434434  0.42116853    -0.59600
O747        O  0.71259616  0.44480370  0.97723782    -0.72100
O748        O  0.71433514  0.55486042  0.97513132    -0.70800
Cu749      Cu  0.53992839  0.49712130  0.50986670     1.04600
Cu750      Cu  0.71093673  0.49983632  0.97573092     1.04300
C751        C  0.75115390  0.57171929  0.97916645     0.95500
C752        C  0.74890811  0.42733632  0.98182371     0.94600
C753        C  0.76057055  0.50358540  0.40744732     0.86700
C754        C  0.73933346  0.50085743  0.05241299     0.93000
O755        O  0.71366142  0.55557533  0.22728402    -0.70700
O756        O  0.71285620  0.44556533  0.22546013    -0.70900
O757        O  0.70529252  0.49994440  0.28142366    -0.60300
O758        O  0.72133453  0.50133410  0.17103401    -0.68800
O759        O  0.54411043  0.50001727  0.20474790    -0.68300
O760        O  0.52806795  0.49649457  0.31500613    -0.59600
O761        O  0.53675000  0.44310052  0.25763414    -0.72100
O762        O  0.53530864  0.55313912  0.26163298    -0.70800
Cu763      Cu  0.71074289  0.50060082  0.22597893     1.04600
Cu764      Cu  0.53862868  0.49816752  0.26009758     1.04300
C765        C  0.75032033  0.57253425  0.23180533     0.95500
C766        C  0.74930351  0.42807518  0.22907402     0.94600
C767        C  0.73934835  0.49998061  0.30258149     0.86700
C768        C  0.76046416  0.50117260  0.15738459     0.93000
C769        C  0.76703376  0.50276760  0.36696041    -0.14200
C770        C  0.73282395  0.50073865  0.34306088    -0.29400
H771        H  0.55043854  0.50074674  0.38261916     0.14800
H772        H  0.69897420  0.49998144  0.35338225     0.15400
C773        C  0.73275686  0.50141402  0.09289699    -0.14200
C774        C  0.76698638  0.50129990  0.11688732    -0.29400
H775        H  0.44860022  0.50072804  0.12923685     0.14800
H776        H  0.80087035  0.50101036  0.10661765     0.15400
C777        C  0.74894179  0.38872455  0.22829689    -0.11100
C778        C  0.74855650  0.35574920  0.22659536    -0.12600
C779        C  0.74818789  0.38811799  0.98457583    -0.11100
C780        C  0.74810144  0.35542715  0.98914805    -0.12600
C781        C  0.75020079  0.61173766  0.23496315    -0.11100
C782        C  0.74977348  0.64433701  0.24016423    -0.12600
C783        C  0.75171788  0.61490178  0.48582981    -0.11100
C784        C  0.75102146  0.64737056  0.49190584    -0.12600
C785        C  0.62429658  0.10994228  0.23262958    -0.11100
C786        C  0.62321138  0.14285885  0.22958609    -0.12600
C787        C  0.62463099  0.88662345  0.24083526    -0.11100
C788        C  0.62355786  0.85385550  0.24500642    -0.12600
C789        C  0.60861529  0.99884949  0.34931915    -0.14200
C790        C  0.64295456  0.99711514  0.37315392    -0.29400
H791        H  0.57482162  0.99996584  0.35972762     0.14800
H792        H  0.67674464  0.99594412  0.36273114     0.15400
C793        C  0.60976889  0.99754543  0.09893375    -0.14200
C794        C  0.64360794  0.99705278  0.12325363    -0.29400
H795        H  0.57573014  0.99763574  0.10884567     0.14800
H796        H  0.67763863  0.99698981  0.11331543     0.15400
C797        C  0.62826467  0.11052324  0.48172062    -0.11100
C798        C  0.62711123  0.14340466  0.47851630    -0.12600
C799        C  0.62927360  0.85545614  0.99028038    -0.11100
C800        C  0.62948840  0.88827662  0.98675670    -0.12600
O801        O  0.60116263  0.00088168  0.92697941    -0.70700
O802        O  0.58256710  0.00077529  0.53798956    -0.71700
O803        O  0.59108626  0.05423660  0.48101939    -0.60300
O804        O  0.59281005  0.94463345  0.98107309    -0.68800
O805        O  0.66592246  0.94492957  0.98939819    -0.68300
O806        O  0.66434090  0.05368731  0.48826028    -0.59600
O807        O  0.65580665  0.99965518  0.54509424    -0.72100
O808        O  0.67426015  0.00105606  0.93506366    -0.70800
Cu809      Cu  0.58748783  0.99936542  0.48251088     1.04600
Cu810      Cu  0.66793213  0.99992802  0.99052748     1.04300
C811        C  0.64043052  0.00140298  0.91363928     0.95500
C812        C  0.61679361  0.00009751  0.55895073     0.94600
C813        C  0.62801757  0.07190835  0.98796837     0.86700
C814        C  0.62475757  0.92671273  0.48934656     0.93000
O815        O  0.67283943  0.99502558  0.68459554    -0.70700
O816        O  0.65809393  0.00150403  0.79487901    -0.71700
O817        O  0.66395961  0.94299781  0.74353408    -0.60300
O818        O  0.66644679  0.05346102  0.73603392    -0.68800
O819        O  0.59315393  0.05386400  0.72923094    -0.68300
O820        O  0.59074611  0.94380614  0.73625744    -0.59600
O821        O  0.58483689  0.00200673  0.78784200    -0.72100
O822        O  0.59959950  0.99604415  0.67752829    -0.70800
Cu823      Cu  0.66792476  0.99819714  0.73998429     1.04600
Cu824      Cu  0.58956806  0.99891721  0.73244933     1.04300
C825        C  0.63860322  0.99524178  0.66365085     0.95500
C826        C  0.61911003  0.00242855  0.80875592     0.94600
C827        C  0.62681481  0.92617370  0.74158001     0.86700
C828        C  0.63008196  0.07089429  0.73120196     0.93000
C829        C  0.62611585  0.18263413  0.00170335     0.05300
C830        C  0.66602693  0.20191572  0.00428438    -0.10800
C831        C  0.66634287  0.23925090  0.01354475     0.02800
C832        C  0.62539566  0.25641286  0.02108366    -0.09300
C833        C  0.58440688  0.23824883  0.01559849     0.05300
C834        C  0.58566876  0.20089082  0.00608430    -0.08800
H835        H  0.69661217  0.18768567  0.99809729     0.10900
H836        H  0.62578150  0.28415431  0.03101505     0.08400
H837        H  0.55551057  0.18566798  0.00112054     0.08300
C838        C  0.62830085  0.18208207  0.71603142     0.05300
C839        C  0.58755325  0.20049617  0.71534833    -0.10800
C840        C  0.58549505  0.23825436  0.70776498     0.02800
C841        C  0.62542702  0.25670854  0.69953696    -0.09300
C842        C  0.66725720  0.23953345  0.70325717     0.05300
C843        C  0.66778336  0.20170600  0.71126244    -0.08800
H844        H  0.55779604  0.18531925  0.72198250     0.10900
H845        H  0.62364783  0.28480588  0.69078227     0.08400
H846        H  0.69863309  0.18712153  0.71507564     0.08300
C847        C  0.62894885  0.81659247  0.99732893     0.05300
C848        C  0.66893457  0.79721874  0.99877334    -0.10800
C849        C  0.66958053  0.75986669  0.00804825     0.02800
C850        C  0.62885768  0.74265506  0.01648917    -0.09300
C851        C  0.58771684  0.76110300  0.01276824     0.05300
C852        C  0.58866741  0.79845529  0.00319284    -0.08800
H853        H  0.69936484  0.81140495  0.99194929     0.10900
H854        H  0.62949790  0.71477115  0.02610615     0.08400
H855        H  0.55826881  0.81375385  0.99952200     0.08300
C856        C  0.62523468  0.81554291  0.76092125     0.05300
C857        C  0.58562946  0.79612446  0.76655821    -0.10800
C858        C  0.58630195  0.75872519  0.77653541     0.02800
C859        C  0.62798951  0.74166943  0.78112821    -0.09300
C860        C  0.66794499  0.76005663  0.77310627     0.05300
C861        C  0.66595333  0.79728092  0.76335999    -0.08800
H862        H  0.55451587  0.81026624  0.76219995     0.10900
H863        H  0.62954256  0.71381304  0.79083434     0.08400
H864        H  0.69595751  0.81214085  0.75668212     0.08300
C865        C  0.75256100  0.68247285  0.99278620     0.05300
C866        C  0.54183842  0.70308527  0.01084929    -0.10800
C867        C  0.54413179  0.74110373  0.01680304     0.02800
C868        C  0.75344577  0.75579077  0.01399388    -0.09300
C869        C  0.71231728  0.73862848  0.00688426     0.05300
C870        C  0.71254807  0.70155030  0.99659678    -0.08800
H871        H  0.57121124  0.68752916  0.00406972     0.10900
H872        H  0.75337569  0.78335538  0.02450037     0.08400
H873        H  0.68174600  0.68739050  0.99085411     0.08300
C874        C  0.75363541  0.68487104  0.75786663     0.05300
C875        C  0.71297387  0.70298513  0.76158408    -0.10800
C876        C  0.71129548  0.73991437  0.77244697     0.02800
C877        C  0.75152157  0.75807508  0.78026452    -0.09300
C878        C  0.54391393  0.73702661  0.77978302     0.05300
C879        C  0.54310596  0.69918136  0.77238220    -0.08800
H880        H  0.68277789  0.68830036  0.75500002     0.10900
H881        H  0.75040714  0.78568528  0.79067506     0.08400
H882        H  0.57326011  0.68463027  0.76562131     0.08300
C883        C  0.74656334  0.31952959  0.47015281     0.05300
C884        C  0.70653480  0.30017896  0.46724819    -0.10800
C885        C  0.70885963  0.26070144  0.01243328     0.02800
C886        C  0.49998097  0.24012931  0.02162623    -0.09300
C887        C  0.54089866  0.25868045  0.01716791     0.05300
C888        C  0.53779979  0.29563188  0.47846999    -0.08800
H889        H  0.67597750  0.31503219  0.47150912     0.10900
H890        H  0.49998977  0.21147834  0.02837959     0.08400
H891        H  0.56844321  0.31040476  0.48289229     0.08300
C892        C  0.74970210  0.31900052  0.71206508     0.05300
C893        C  0.54267395  0.29568030  0.72354832    -0.10800
C894        C  0.54258549  0.25896300  0.71176400     0.02800
C895        C  0.75137820  0.24402266  0.69778401    -0.09300
C896        C  0.70983903  0.26143927  0.70220241     0.05300
C897        C  0.70986607  0.29948926  0.70889605    -0.08800
H898        H  0.57359116  0.31004197  0.72814878     0.10900
H899        H  0.75252534  0.21579579  0.68948969     0.08400
H900        H  0.67927438  0.31434250  0.71290382     0.08300
O901        O  0.53726036  0.55249628  0.51185282    -0.70700
O902        O  0.53703225  0.44174259  0.50723781    -0.71700
O903        O  0.54666917  0.49940168  0.95535899    -0.60300
O904        O  0.53037811  0.49533988  0.56485316    -0.68800
O905        O  0.70599499  0.50377231  0.53167969    -0.68300
O906        O  0.72174176  0.49869058  0.92081464    -0.59600
O907        O  0.71219209  0.44906071  0.47576609    -0.72100
O908        O  0.71477257  0.55904923  0.47734883    -0.70800
Cu909      Cu  0.54013913  0.50005495  0.01067862     1.04600
Cu910      Cu  0.71107445  0.50410338  0.47617777     1.04300
C911        C  0.75159572  0.57572189  0.48200068     0.95500
C912        C  0.74835581  0.43113283  0.47904579     0.94600
C913        C  0.76093789  0.49804098  0.90730064     0.86700
C914        C  0.74019792  0.50357873  0.55268725     0.93000
O915        O  0.71638984  0.55871531  0.73020568    -0.70700
O916        O  0.71327731  0.44852425  0.72228163    -0.70900
O917        O  0.70643607  0.50021792  0.78111473    -0.60300
O918        O  0.72292956  0.50680709  0.67112109    -0.68800
O919        O  0.54824871  0.49779989  0.70472105    -0.68300
O920        O  0.53235408  0.49397117  0.81525183    -0.59600
O921        O  0.54033104  0.44075205  0.75746928    -0.72100
O922        O  0.54042638  0.55095320  0.76235309    -0.70800
Cu923      Cu  0.71221507  0.50367025  0.72586675     1.04600
Cu924      Cu  0.54292569  0.49584401  0.76025136     1.04300
C925        C  0.75337321  0.57493020  0.73589436     0.95500
C926        C  0.74948503  0.43044991  0.72466796     0.94600
C927        C  0.74037075  0.49853988  0.80232063     0.86700
C928        C  0.76203059  0.50645193  0.65745155     0.93000
C929        C  0.76769211  0.49746631  0.86684834    -0.14200
C930        C  0.73360349  0.49735044  0.84275163    -0.29400
H931        H  0.55414824  0.49862771  0.88341535     0.14800
H932        H  0.69966283  0.49726682  0.85289662     0.15400
C933        C  0.73400078  0.50454116  0.59318221    -0.14200
C934        C  0.76836538  0.50676050  0.61694296    -0.29400
H935        H  0.45201677  0.49392607  0.63015188     0.14800
H936        H  0.80214976  0.50781529  0.60649900     0.15400
C937        C  0.74878832  0.39113506  0.72117819    -0.11100
C938        C  0.74893879  0.35824540  0.71753261    -0.12600
C939        C  0.74728200  0.39174563  0.47766433    -0.11100
C940        C  0.74641674  0.35878948  0.47514616    -0.12600
C941        C  0.75418276  0.61404300  0.74131995    -0.11100
C942        C  0.75442473  0.64648294  0.74794745    -0.12600
C943        C  0.75155073  0.61101809  0.98081499    -0.11100
C944        C  0.75200895  0.64378015  0.98485368    -0.12600
C945        C  0.63053443  0.11020888  0.72732082    -0.11100
C946        C  0.62975258  0.14301382  0.72282365    -0.12600
C947        C  0.62539045  0.88692672  0.74641431    -0.11100
C948        C  0.62448259  0.85429346  0.75221357    -0.12600
C949        C  0.61292441  0.00341013  0.84924511    -0.14200
C950        C  0.64719104  0.00217196  0.87317285    -0.29400
H951        H  0.57909052  0.00430952  0.85959218     0.14800
H952        H  0.68105476  0.00125872  0.86289591     0.15400
C953        C  0.61060642  0.99945301  0.59945984    -0.14200
C954        C  0.64477079  0.99524690  0.62312882    -0.29400
H955        H  0.57699706  0.00210839  0.61000027     0.14800
H956        H  0.67838971  0.99262223  0.61259624     0.15400
C957        C  0.62735957  0.11112225  0.99039776    -0.11100
C958        C  0.62670569  0.14385851  0.99441239    -0.12600
C959        C  0.62211912  0.85494857  0.49841292    -0.11100
C960        C  0.62327383  0.88754845  0.49313095    -0.12600
O961        O  0.84192184  0.00093523  0.44362533    -0.70700
O962        O  0.82921645  0.99810303  0.05335917    -0.71700
O963        O  0.83692199  0.05416911  0.99891377    -0.60300
O964        O  0.83507402  0.94769605  0.50116858    -0.68800
O965        O  0.90832073  0.94880901  0.50838886    -0.68300
O966        O  0.91011914  0.05463640  0.00666109    -0.59600
O967        O  0.90232546  0.99894404  0.06135340    -0.72100
O968        O  0.91512557  0.00191942  0.45098685    -0.70800
Cu969      Cu  0.83519629  0.99899872  0.99799664     1.04600
Cu970      Cu  0.90990970  0.00381611  0.50639601     1.04300
C971        C  0.88101673  0.00107368  0.42990726     0.95500
C972        C  0.86305111  0.99830660  0.07474156     0.94600
C973        C  0.86984482  0.07558909  0.49882835     0.86700
C974        C  0.87600643  0.92712240  0.00116846     0.93000
O975        O  0.91668659  0.99930910  0.20130745    -0.70700
O976        O  0.89940641  0.00127518  0.31149907    -0.71700
O977        O  0.90834412  0.94547349  0.25755053    -0.60300
O978        O  0.90787563  0.05530329  0.25505624    -0.68800
O979        O  0.83473281  0.05497280  0.24689986    -0.68300
O980        O  0.83516143  0.94505125  0.24958346    -0.59600
O981        O  0.82629050  0.00104574  0.30351935    -0.72100
O982        O  0.84358399  0.99884882  0.19320426    -0.70800
Cu983      Cu  0.91061359  0.00036771  0.25668163     1.04600
Cu984      Cu  0.83235803  0.99997948  0.24805641     1.04300
C985        C  0.88288415  0.99879687  0.17987964     0.95500
C986        C  0.86015403  0.00125838  0.32490199     0.94600
C987        C  0.87186000  0.92809206  0.25392667     0.86700
C988        C  0.87131729  0.07231810  0.25015568     0.93000
C989        C  0.87110810  0.18608268  0.48087362     0.05300
C990        C  0.91157732  0.20468169  0.47834427    -0.10800
C991        C  0.91309092  0.24178782  0.46777355     0.02800
C992        C  0.87260473  0.25943743  0.45919124    -0.09300
C993        C  0.83123847  0.24200605  0.46442356     0.05300
C994        C  0.83129406  0.20491829  0.47506913    -0.08800
H995        H  0.94158885  0.19007130  0.48558015     0.10900
H996        H  0.87327630  0.28697265  0.44860209     0.08400
H997        H  0.80051748  0.19048810  0.47989698     0.08300
C998        C  0.87230896  0.18263951  0.23334118     0.05300
C999        C  0.83222212  0.20133850  0.22828745    -0.10800
C1000       C  0.83181544  0.23820749  0.21700964     0.02800
C1001       C  0.87288226  0.25544227  0.21031461    -0.09300
C1002       C  0.91358857  0.23809841  0.21852542     0.05300
C1003       C  0.91267220  0.20120002  0.22961423    -0.08800
H1004       H  0.80158540  0.18700291  0.23398114     0.10900
H1005       H  0.87318645  0.28271399  0.19899586     0.08400
H1006       H  0.94306655  0.18681714  0.23622956     0.08300
C1007       C  0.87350831  0.81954656  0.51617432     0.05300
C1008       C  0.91366720  0.80059741  0.52024926    -0.10800
C1009       C  0.91415842  0.76254893  0.52662467     0.02800
C1010       C  0.87290676  0.74439452  0.52969032    -0.09300
C1011       C  0.83230033  0.76243246  0.52261014     0.05300
C1012       C  0.83331015  0.80039299  0.51623799    -0.08800
H1013       H  0.94428726  0.81572979  0.51735108     0.10900
H1014       H  0.87232153  0.71592470  0.53732535     0.08400
H1015       H  0.80309353  0.81530190  0.51032503     0.08300
C1016       C  0.87256875  0.81680957  0.26166128     0.05300
C1017       C  0.83248785  0.79760790  0.26179521    -0.10800
C1018       C  0.83165328  0.75972484  0.26856889     0.02800
C1019       C  0.87226624  0.74189466  0.27583220    -0.09300
C1020       C  0.91337248  0.76015753  0.27234433     0.05300
C1021       C  0.91274957  0.79807694  0.26564282    -0.08800
H1022       H  0.80226620  0.81246117  0.25577498     0.10900
H1023       H  0.87177815  0.71354316  0.28390253     0.08400
H1024       H  0.94325319  0.81331692  0.26249676     0.08300
C1025       C  0.99838130  0.68532117  0.51401604     0.05300
C1026       C  0.78972053  0.70464631  0.50752544    -0.10800
C1027       C  0.78955598  0.74136182  0.51931316     0.02800
C1028       C  0.99801775  0.75859827  0.53582379    -0.09300
C1029       C  0.95720356  0.74143484  0.52719663     0.05300
C1030       C  0.95823018  0.70437666  0.51646378    -0.08800
H1031       H  0.82062263  0.69072185  0.50176001     0.10900
H1032       H  0.99791221  0.78621986  0.54616686     0.08400
H1033       H  0.92810339  0.69014450  0.50887147     0.08300
C1034       C  0.99722873  0.68319523  0.25953169     0.05300
C1035       C  0.95726083  0.70225544  0.26227270    -0.10800
C1036       C  0.95639328  0.73929106  0.27262298     0.02800
C1037       C  0.99720939  0.75668738  0.28041510    -0.09300
C1038       C  0.78903849  0.73860010  0.26565415     0.05300
C1039       C  0.78902560  0.70167266  0.25456134    -0.08800
H1040       H  0.92699559  0.68789730  0.25533169     0.10900
H1041       H  0.99705683  0.78426776  0.29083840     0.08400
H1042       H  0.81985017  0.68745208  0.24926917     0.08300
C1043       C  0.00196278  0.31664802  0.99837291     0.05300
C1044       C  0.96126070  0.29832673  0.00099884    -0.10800
C1045       C  0.95630434  0.26253217  0.46823973     0.02800
C1046       C  0.74774573  0.24478390  0.45501103    -0.09300
C1047       C  0.78830368  0.26296093  0.46171347     0.05300
C1048       C  0.78923145  0.29836702  0.00056192    -0.08800
H1049       H  0.93130035  0.31337574  0.99466173     0.10900
H1050       H  0.74865381  0.21670726  0.44618964     0.08400
H1051       H  0.81928979  0.31315414  0.99405392     0.08300
C1052       C  0.99563086  0.31673560  0.22810449     0.05300
C1053       C  0.78840379  0.29725442  0.22141838    -0.10800
C1054       C  0.78905993  0.25931729  0.21489379     0.02800
C1055       C  0.99756458  0.24184275  0.21305208    -0.09300
C1056       C  0.95627939  0.25929707  0.21828549     0.05300
C1057       C  0.95610066  0.29700566  0.22573358    -0.08800
H1058       H  0.81881054  0.31216526  0.22649554     0.10900
H1059       H  0.99790098  0.21352967  0.20488485     0.08400
H1060       H  0.92525971  0.31136618  0.23057770     0.08300
O1061       O  0.78753304  0.55415801  0.98286003    -0.70700
O1062       O  0.78580805  0.44424026  0.98491367    -0.71700
O1063       O  0.79467526  0.50327938  0.42853702    -0.60300
O1064       O  0.77849204  0.50023333  0.03884290    -0.68800
O1065       O  0.97716056  0.49956538  0.04696025    -0.68300
O1066       O  0.97245795  0.50468763  0.43132712    -0.59600
O1067       O  0.97281629  0.44557019  0.99007465    -0.72100
O1068       O  0.97522297  0.55465624  0.99144600    -0.70800
Cu1069     Cu  0.78941401  0.50285652  0.48398484     1.04600
Cu1070     Cu  0.97209320  0.50013813  0.99075225     1.04300
C1071       C  0.01210317  0.57167467  0.99190356     0.95500
C1072       C  0.00894202  0.42750717  0.98919253     0.94600
C1073       C  0.01186642  0.50438193  0.41814848     0.86700
C1074       C  0.01491542  0.49873260  0.06350697     0.93000
O1075       O  0.95288456  0.55619793  0.24233702    -0.70700
O1076       O  0.95178245  0.44510837  0.23868531    -0.70900
O1077       O  0.95140212  0.49917787  0.29533279    -0.60300
O1078       O  0.94990387  0.50221721  0.18540078    -0.68800
O1079       O  0.79451856  0.50074050  0.17854751    -0.68300
O1080       O  0.77848380  0.49965266  0.28894389    -0.59600
O1081       O  0.78606158  0.44503040  0.23310640    -0.72100
O1082       O  0.78691104  0.55511446  0.23469410    -0.70800
Cu1083     Cu  0.94895904  0.50068341  0.24043259     1.04600
Cu1084     Cu  0.78906935  0.50008943  0.23403251     1.04300
C1085       C  0.99037079  0.57272912  0.24284286     0.95500
C1086       C  0.98895810  0.42809861  0.23844961     0.94600
C1087       C  0.98763487  0.49952574  0.31357863     0.86700
C1088       C  0.98598656  0.50165298  0.16715035     0.93000
C1089       C  0.01875605  0.50371572  0.37754253    -0.14200
C1090       C  0.98418055  0.50002959  0.35430587    -0.29400
H1091       H  0.80088423  0.50348294  0.35663251     0.14800
H1092       H  0.95085296  0.49790216  0.36560040     0.15400
C1093       C  0.01836457  0.49883158  0.10433647    -0.14200
C1094       C  0.98280870  0.50163504  0.12631647    -0.29400
H1095       H  0.69886980  0.50168429  0.10315731     0.14800
H1096       H  0.94990158  0.50358434  0.11402597     0.15400
C1097       C  0.99035772  0.38873906  0.23645924    -0.11100
C1098       C  0.99355647  0.35590951  0.23350174    -0.12600
C1099       C  0.00677405  0.38828956  0.98942666    -0.11100
C1100       C  0.00366923  0.35551165  0.99187350    -0.12600
C1101       C  0.99249470  0.61195227  0.24623087    -0.11100
C1102       C  0.99588782  0.64451707  0.25122210    -0.12600
C1103       C  0.99879621  0.61445688  0.49836832    -0.11100
C1104       C  0.99851683  0.64693212  0.50447890    -0.12600
C1105       C  0.87154115  0.11151543  0.24713818    -0.11100
C1106       C  0.87195050  0.14414842  0.24218776    -0.12600
C1107       C  0.87211393  0.88885712  0.25507966    -0.11100
C1108       C  0.87243054  0.85596327  0.25716253    -0.12600
C1109       C  0.85335253  0.00137201  0.36537661    -0.14200
C1110       C  0.88750648  0.00053572  0.38942486    -0.29400
H1111       H  0.81944298  0.00210053  0.37556426     0.14800
H1112       H  0.92140089  0.99985817  0.37919805     0.15400
C1113       C  0.85603004  0.99798049  0.11517808    -0.14200
C1114       C  0.88993647  0.99833815  0.13945323    -0.29400
H1115       H  0.82202045  0.99772581  0.12516186     0.14800
H1116       H  0.92394404  0.99859452  0.12947165     0.15400
C1117       C  0.86980535  0.11482590  0.49495158    -0.11100
C1118       C  0.87035040  0.14746550  0.48962781    -0.12600
C1119       C  0.87858829  0.85477495  0.00171667    -0.11100
C1120       C  0.87720661  0.88777035  0.00085545    -0.12600
O1121       O  0.84601547  0.00015376  0.94326398    -0.70700
O1122       O  0.82630017  0.00468076  0.55405068    -0.71700
O1123       O  0.83335851  0.05794212  0.49634861    -0.60300
O1124       O  0.83898220  0.94383058  0.99745166    -0.68800
O1125       O  0.91212776  0.94485661  0.00542828    -0.68300
O1126       O  0.90657947  0.05881548  0.50376268    -0.59600
O1127       O  0.89951838  0.00544695  0.56129423    -0.72100
O1128       O  0.91918398  0.00070130  0.95092602    -0.70800
Cu1129     Cu  0.83157426  0.00279318  0.49857198     1.04600
Cu1130     Cu  0.91346721  0.99978322  0.00640258     1.04300
C1131       C  0.88515924  0.00104521  0.92971766     0.95500
C1132       C  0.86046597  0.00513851  0.57508537     0.94600
C1133       C  0.87340301  0.07161551  0.00268738     0.86700
C1134       C  0.87199470  0.93103059  0.50565953     0.93000
O1135       O  0.91695666  0.00231548  0.70067504    -0.70700
O1136       O  0.90228978  0.00576993  0.81112101    -0.71700
O1137       O  0.91086930  0.94900285  0.75831026    -0.60300
O1138       O  0.90872560  0.05910894  0.75340516    -0.68800
O1139       O  0.83544597  0.05810911  0.74647135    -0.68300
O1140       O  0.83760591  0.94768857  0.75140530    -0.59600
O1141       O  0.82902892  0.00474432  0.80417064    -0.72100
O1142       O  0.84368865  0.00131525  0.69378641    -0.70800
Cu1143     Cu  0.91223905  0.00409931  0.75614711     1.04600
Cu1144     Cu  0.83385984  0.00290897  0.74874728     1.04300
C1145       C  0.88263866  0.00181619  0.67981454     0.95500
C1146       C  0.86331119  0.00533085  0.82505210     0.94600
C1147       C  0.87458771  0.93109253  0.75596295     0.86700
C1148       C  0.87193341  0.07581862  0.74853205     0.93000
C1149       C  0.87475095  0.18337205  0.00503044     0.05300
C1150       C  0.91507518  0.20229113  0.00633318    -0.10800
C1151       C  0.91614454  0.24047833  0.01164402     0.02800
C1152       C  0.87517667  0.25889090  0.01596255    -0.09300
C1153       C  0.83405611  0.24066033  0.01176003     0.05300
C1154       C  0.83473008  0.20255919  0.00634233    -0.08800
H1155       H  0.94532735  0.18686447  0.00255613     0.10900
H1156       H  0.87528135  0.28750191  0.02287422     0.08400
H1157       H  0.80432346  0.18734091  0.00245821     0.08300
C1158       C  0.87381134  0.18582357  0.72761049     0.05300
C1159       C  0.83421708  0.20459377  0.72052349    -0.10800
C1160       C  0.83456375  0.24137283  0.70877796     0.02800
C1161       C  0.87611575  0.25855582  0.70381315    -0.09300
C1162       C  0.91632672  0.24103016  0.71359149     0.05300
C1163       C  0.91444033  0.20422938  0.72513234    -0.08800
H1164       H  0.80325279  0.19040163  0.72525811     0.10900
H1165       H  0.87713291  0.28585521  0.69260147     0.08400
H1166       H  0.94428068  0.18980301  0.73323119     0.08300
C1167       C  0.87903542  0.81537779  0.00482415     0.05300
C1168       C  0.91918699  0.79649107  0.00872565    -0.10800
C1169       C  0.91990302  0.75833007  0.01449116     0.02800
C1170       C  0.87856996  0.73991515  0.01659781    -0.09300
C1171       C  0.83780360  0.75819643  0.01011356     0.05300
C1172       C  0.83898088  0.79621627  0.00424527    -0.08800
H1173       H  0.94963850  0.81192963  0.00646968     0.10900
H1174       H  0.87803512  0.71130350  0.02357056     0.08400
H1175       H  0.80891686  0.81138259  0.99854794     0.08300
C1176       C  0.87651648  0.81968391  0.76940738     0.05300
C1177       C  0.83635354  0.80040583  0.77015686    -0.10800
C1178       C  0.83551373  0.76254218  0.77739129     0.02800
C1179       C  0.87614480  0.74481293  0.78477415    -0.09300
C1180       C  0.91728569  0.76287384  0.78076263     0.05300
C1181       C  0.91676588  0.80080916  0.77364100    -0.08800
H1182       H  0.80605102  0.81509757  0.76400023     0.10900
H1183       H  0.87570359  0.71652580  0.79311785     0.08400
H1184       H  0.94741709  0.81579197  0.77016085     0.08300
C1185       C  0.00685688  0.68222574  0.00588134     0.05300
C1186       C  0.79309380  0.70072904  0.99726857    -0.10800
C1187       C  0.79435404  0.73780232  0.00774782     0.02800
C1188       C  0.00364723  0.75584689  0.02565481    -0.09300
C1189       C  0.96349877  0.73781102  0.01637963     0.05300
C1190       C  0.96595431  0.70046715  0.00680581    -0.08800
H1191       H  0.82340753  0.68582775  0.99190820     0.10900
H1192       H  0.00255170  0.78353704  0.03569831     0.08400
H1193       H  0.93649030  0.68534768  0.99920535     0.08300
C1194       C  0.99995920  0.68495397  0.76669598     0.05300
C1195       C  0.96029415  0.70452158  0.76973780    -0.10800
C1196       C  0.96007479  0.74148779  0.78068194     0.02800
C1197       C  0.00124803  0.75823437  0.78873380    -0.09300
C1198       C  0.79299350  0.74110795  0.77447356     0.05300
C1199       C  0.79334751  0.70408473  0.76341156    -0.08800
H1200       H  0.92976802  0.69071482  0.76242194     0.10900
H1201       H  0.00155104  0.78584410  0.79912149     0.08400
H1202       H  0.82432055  0.69011134  0.75806157     0.08300
C1203       C  0.99738492  0.31920266  0.47866655     0.05300
C1204       C  0.95711445  0.30045833  0.47505455    -0.10800
C1205       C  0.95959118  0.26105453  0.01105161     0.02800
C1206       C  0.75013534  0.24352563  0.01876338    -0.09300
C1207       C  0.79075693  0.26130036  0.01110316     0.05300
C1208       C  0.78699226  0.30077884  0.46876978    -0.08800
H1209       H  0.92663359  0.31567566  0.47852795     0.10900
H1210       H  0.75040102  0.21602733  0.02947197     0.08400
H1211       H  0.81714621  0.31591501  0.47418302     0.08300
C1212       C  0.99981162  0.31871054  0.72540707     0.05300
C1213       C  0.79025365  0.30031694  0.71126772    -0.10800
C1214       C  0.79176213  0.26235896  0.70479855     0.02800
C1215       C  0.00071979  0.24360776  0.71147839    -0.09300
C1216       C  0.95950977  0.26178967  0.71457447     0.05300
C1217       C  0.95987871  0.29967146  0.72126074    -0.08800
H1218       H  0.82028475  0.31553317  0.71693052     0.10900
H1219       H  0.00081503  0.21525504  0.70351711     0.08400
H1220       H  0.92915234  0.31466402  0.72429238     0.08300
O1221       O  0.78801700  0.55800123  0.48467618    -0.70700
O1222       O  0.78542097  0.44769399  0.48304652    -0.71700
O1223       O  0.79489389  0.49811105  0.92856171    -0.60300
O1224       O  0.77922125  0.50269268  0.53889098    -0.68800
O1225       O  0.95249180  0.50197090  0.54123708    -0.68300
O1226       O  0.97375845  0.50061996  0.93443580    -0.59600
O1227       O  0.96186705  0.44834545  0.48450947    -0.72100
O1228       O  0.96261385  0.55841610  0.48827388    -0.70800
Cu1229     Cu  0.78923766  0.49916352  0.98397748     1.04600
Cu1230     Cu  0.95982970  0.50339110  0.48593643     1.04300
C1231       C  0.99908860  0.57532188  0.49395969     0.95500
C1232       C  0.99824454  0.43077687  0.48822530     0.94600
C1233       C  0.01089514  0.50042933  0.91718452     0.86700
C1234       C  0.98602470  0.50185207  0.56297050     0.93000
O1235       O  0.95880334  0.55825705  0.74017540    -0.70700
O1236       O  0.95871793  0.44745730  0.73399285    -0.70900
O1237       O  0.94969791  0.50021374  0.79212803    -0.60300
O1238       O  0.96654290  0.50530513  0.68169298    -0.68800
O1239       O  0.79609657  0.50518396  0.67857778    -0.68300
O1240       O  0.77956997  0.49837474  0.78878982    -0.59600
O1241       O  0.78644990  0.44681479  0.72980473    -0.72100
O1242       O  0.78953210  0.55678273  0.73786059    -0.70800
Cu1243     Cu  0.95580058  0.50284999  0.73665627     1.04600
Cu1244     Cu  0.79046843  0.50174088  0.73398543     1.04300
C1245       C  0.99561368  0.57494684  0.74552058     0.95500
C1246       C  0.99561308  0.43027729  0.73660133     0.94600
C1247       C  0.98383785  0.49958190  0.81315596     0.86700
C1248       C  0.00570164  0.50547917  0.66809439     0.93000
C1249       C  0.01341175  0.50054157  0.87645946    -0.14200
C1250       C  0.97804715  0.49903611  0.85382573    -0.29400
H1251       H  0.80162992  0.49768405  0.85669879     0.14800
H1252       H  0.94470498  0.49789204  0.86518418     0.15400
C1253       C  0.97866902  0.50237898  0.60338796    -0.14200
C1254       C  0.01243390  0.50553473  0.62762607    -0.29400
H1255       H  0.70023109  0.50341905  0.60365086     0.14800
H1256       H  0.04633607  0.50743387  0.61757595     0.15400
C1257       C  0.99672232  0.39090802  0.73372285    -0.11100
C1258       C  0.99873793  0.35800226  0.73055578    -0.12600
C1259       C  0.99795810  0.39141075  0.48627334    -0.11100
C1260       C  0.99761026  0.35846619  0.48357697    -0.12600
C1261       C  0.99642148  0.61411135  0.75048259    -0.11100
C1262       C  0.99850167  0.64653992  0.75693252    -0.12600
C1263       C  0.01152263  0.61087787  0.99427102    -0.11100
C1264       C  0.00900858  0.64354205  0.99834313    -0.12600
C1265       C  0.87189006  0.11501061  0.74396527    -0.11100
C1266       C  0.87264987  0.14749722  0.73767534    -0.12600
C1267       C  0.87542844  0.89172387  0.75918772    -0.11100
C1268       C  0.87627684  0.85885924  0.76320491    -0.12600
C1269       C  0.85720563  0.00489119  0.86555127    -0.14200
C1270       C  0.89158756  0.00258233  0.88926778    -0.29400
H1271       H  0.82342483  0.00563662  0.87603625     0.14800
H1272       H  0.92537685  0.00177243  0.87881736     0.15400
C1273       C  0.85425000  0.00483132  0.61561167    -0.14200
C1274       C  0.88865498  0.00224863  0.63928602    -0.29400
H1275       H  0.82052094  0.00618943  0.62614424     0.14800
H1276       H  0.92237172  0.00090812  0.62872680     0.15400
C1277       C  0.87338950  0.11095203  0.00236097    -0.11100
C1278       C  0.87421317  0.14395285  0.00268206    -0.12600
C1279       C  0.87341816  0.85879182  0.51114564    -0.11100
C1280       C  0.87272068  0.89170229  0.50810199    -0.12600
loop_ 
_geom_bond_atom_site_label_1 
_geom_bond_atom_site_label_2 
_geom_bond_distance 
_geom_bond_site_symmetry_2 
_ccdc_geom_bond_type 
O1           C11   1.278       .  A
O1         Cu169   2.011       .  S
O2           C12   1.276       .  A
O2           Cu9   2.003   1_554  S
O3          C173   1.278   1_556  A
O3           Cu9   2.022   1_545  S
O4          C174   1.279       .  A
O4         Cu169   2.028       .  S
O5          C174   1.277       .  A
O5          Cu10   2.020   1_565  S
O6          C173   1.277       .  A
O6         Cu170   2.014   1_545  S
O7           C12   1.279       .  A
O7         Cu170   2.011       .  S
O8           C11   1.277       .  A
O8          Cu10   2.009   1_565  S
Cu9         O161   2.002       .  S
Cu9         O164   2.024       .  S
Cu9        Cu170   2.376   1_556  S
Cu10        O166   2.023       .  S
Cu10        O167   2.007       .  S
Cu10       Cu169   2.375   1_545  S
C11         C150   1.475       .  S
C12         C153   1.474       .  S
C13         O163   1.279       .  A
C13         O166   1.278       .  A
C13         C157   1.447       .  S
C14         O164   1.279   1_554  A
C14         O165   1.277       .  A
C14         C160   1.443       .  S
O15          C25   1.276       .  A
O15         Cu23   2.005   1_565  S
O16          C26   1.278       .  A
O16         Cu23   2.007       .  S
O17          C27   1.278       .  A
O17         Cu23   2.020   1_565  S
O18          C28   1.278       .  A
O18         Cu23   2.024       .  S
O19          C28   1.277       .  A
O19         Cu24   2.019       .  S
O20          C27   1.277       .  A
O20         Cu24   2.019   1_565  S
O21          C26   1.278       .  A
O21         Cu24   2.013       .  S
O22          C25   1.279       .  A
O22         Cu24   2.010   1_565  S
Cu23        Cu24   2.376       .  S
C25         C154   1.474       .  S
C26         C149   1.476       .  S
C27         C147   1.443       .  S
C28         C145   1.444       .  S
C29         C158   1.452       .  S
C29          C30   1.401       .  A
C29          C34   1.401       .  A
C30          C31   1.412       .  A
C30          H35   1.082       .  S
C31          C32   1.412       .  A
C31          C85   1.506       .  S
C32          C33   1.414       .  A
C32          H36   1.079       .  S
C33          C34   1.414       .  A
C33          C87   1.510       .  S
C34          H37   1.081       .  S
C38         C146   1.450       .  S
C38          C39   1.400       .  A
C38          C43   1.398       .  A
C39          C40   1.414       .  A
C39          H44   1.081       .  S
C40          C41   1.415       .  A
C40          C94   1.512       .  S
C41          C42   1.416       .  A
C41          H45   1.079       .  S
C42          C43   1.410       .  A
C42          C96   1.506       .  S
C43          H46   1.082       .  S
C47         C319   1.452       .  S
C47          C48   1.402       .  A
C47          C52   1.399       .  A
C48          C49   1.416       .  A
C48          H53   1.081       .  S
C49          C50   1.415       .  A
C49          C69   1.513       .  S
C50          C51   1.415       .  A
C50          H54   1.079       .  S
C51          C52   1.410       .  A
C51          C67   1.506       .  S
C52          H55   1.082       .  S
C56         C148   1.448       .  S
C56          C57   1.399       .  A
C56          C61   1.399       .  A
C57          C58   1.412       .  A
C57          H62   1.082       .  S
C58          C59   1.413       .  A
C58          C78   1.510       .  S
C59          C60   1.420       .  A
C59          H63   1.078       .  S
C60          C61   1.412       .  A
C60          C76   1.513       .  S
C61          H64   1.081       .  S
C65         C144   1.448       .  S
C65          C70   1.402       .  A
C65         C386   1.398       .  A
C66          C67   1.411       .  A
C66        C1025   1.398   1_455  A
C66          H71   1.082       .  S
C67        C1028   1.415   1_455  A
C68          C69   1.414       .  A
C68         C387   1.415       .  A
C68          H72   1.079       .  S
C69          C70   1.415       .  A
C70          H73   1.081       .  S
C74         C142   1.452       .  S
C74          C75   1.395       .  A
C74         C399   1.403       .  A
C75          C76   1.410       .  A
C75          H80   1.080       .  S
C76          C77   1.420       .  A
C77         C398   1.418       .  A
C77          H81   1.077       .  S
C78          C79   1.416       .  A
C78        C1037   1.414   1_455  A
C79        C1034   1.405   1_455  A
C79          H82   1.082       .  S
C83         C140   1.444       .  S
C83          C84   1.404       .  A
C83         C408   1.392       .  A
C84         C245   1.418       .  A
C84          H89   1.081       .  S
C85         C244   1.412       .  A
C85         C406   1.411       .  A
C86          C87   1.414   1_655  A
C86        C1045   1.413       .  A
C86          H90   1.079       .  S
C87         C248   1.413       .  A
C88        C1043   1.394   1_554  A
C88         C247   1.407       .  A
C88          H91   1.082   1_554  S
C92         C138   1.454       .  S
C92          C97   1.397       .  A
C92         C413   1.406       .  A
C93          C94   1.417       .  A
C93        C1052   1.404   1_455  A
C93          H98   1.081       .  S
C94        C1055   1.415   1_455  A
C95          C96   1.415       .  A
C95         C414   1.416       .  A
C95          H99   1.080       .  S
C96          C97   1.409       .  A
C97         H100   1.082       .  S
O101       C1071   1.280       .  A
O101       Cu269   2.030       .  S
O102       C1072   1.280       .  A
O102       Cu269   2.029       .  S
O103       C1073   1.277       .  A
O103       Cu109   2.015       .  S
O104       C1074   1.273       .  A
O104       Cu269   1.989   1_554  S
O105        C114   1.283       .  A
O105       Cu110   2.033       .  S
O106        C113   1.280       .  A
O106       Cu270   2.011       .  S
O107        C112   1.272       .  A
O107       Cu110   1.992       .  S
O108        C111   1.273       .  A
O108       Cu110   1.993       .  S
Cu109       O261   2.020       .  S
Cu109       O262   2.024       .  S
Cu109       O264   2.009       .  S
Cu109     Cu1230   2.375   1_455  S
Cu110       O266   2.034   1_554  S
Cu110      Cu589   2.377       .  S
C111        O421   1.281       .  A
C111        C303   1.438       .  S
C112        O422   1.281       .  A
C112        C139   1.438       .  S
C113        O423   1.276       .  A
C113        C129   1.480       .  S
C114        O424   1.272       .  A
C114        C133   1.474       .  S
O115        C125   1.281       .  A
O115       Cu123   2.041       .  S
O116        C126   1.282       .  A
O116       Cu123   2.042       .  S
O117        C127   1.273       .  A
O117       Cu123   1.986       .  S
O118        C128   1.272       .  A
O118       Cu123   1.983       .  S
O119       C1088   1.283   1_455  A
O119       Cu124   2.037       .  S
O120       C1087   1.282   1_455  A
O120       Cu124   2.038       .  S
O121       C1086   1.274   1_455  A
O121       Cu124   2.005       .  S
O122       C1085   1.274   1_455  A
O122       Cu124   2.003       .  S
Cu123      Cu444   2.375       .  S
Cu124     Cu1083   2.375   1_455  S
C125        O442   1.275       .  A
C125        C141   1.447       .  S
C126        O441   1.275       .  A
C126        C137   1.449       .  S
C127        O440   1.282       .  A
C127        C130   1.475       .  S
C128        O439   1.283       .  A
C128        C134   1.473       .  S
C129        C130   1.342       .  D
C129        H451   1.086       .  S
C130        H132   1.087       .  S
H131       C1089   1.086       .  S
C133        C134   1.337       .  D
C133        H455   1.087       .  S
C134        H136   1.087       .  S
H135       C1093   1.087       .  S
C137        C138   1.214       .  T
C139        C140   1.208       .  T
C141        C142   1.213       .  T
C143        C271   1.443       .  S
C143        C144   1.210       .  T
C145        C146   1.211       .  T
C147        C148   1.210       .  T
C149        C150   1.345   1_545  D
C149        H151   1.087       .  S
C150        H152   1.087       .  S
C153        C154   1.343       .  D
C153        H155   1.087       .  S
C154        H156   1.087       .  S
C157        C158   1.213       .  T
C159        C207   1.448       .  S
C159        C160   1.210       .  T
O161        C171   1.278   1_565  A
O162        C172   1.277       .  A
O162       Cu169   2.009   1_545  S
O163       Cu169   2.026   1_545  S
O165       Cu170   2.014       .  S
O167        C172   1.278       .  A
O168        C171   1.277   1_565  A
O168       Cu170   2.011   1_556  S
C171        C310   1.474       .  S
C172        C313   1.475   1_545  S
C173        C317   1.442       .  S
C174        C320   1.446       .  S
O175        C185   1.277       .  A
O175       Cu183   2.008   1_565  S
O176        C186   1.278       .  A
O176       Cu183   2.006       .  S
O177        C187   1.277       .  A
O177       Cu183   2.020   1_565  S
O178        C188   1.278       .  A
O178       Cu183   2.022       .  S
O179        C188   1.278       .  A
O179       Cu184   2.023   1_545  S
O180        C187   1.278       .  A
O180       Cu184   2.025       .  S
O181        C186   1.277       .  A
O181       Cu184   2.007   1_545  S
O182        C185   1.278       .  A
O182       Cu184   2.008       .  S
Cu183      Cu184   2.376   1_545  S
C185        C314   1.474       .  S
C186        C309   1.473       .  S
C187        C307   1.445       .  S
C188        C305   1.445       .  S
C189        C318   1.447       .  S
C189        C190   1.400       .  A
C189        C194   1.396       .  A
C190        C191   1.416       .  A
C190        H195   1.080       .  S
C191        C192   1.413       .  A
C191        C245   1.513       .  S
C192        C193   1.415       .  A
C192        H196   1.078       .  S
C193        C194   1.409       .  A
C193        C247   1.503       .  S
C194        H197   1.082       .  S
C198        C306   1.451       .  S
C198        C199   1.401       .  A
C198        C203   1.399       .  A
C199        C200   1.415       .  A
C199        H204   1.081       .  S
C200        C201   1.417       .  A
C200        C254   1.516       .  S
C201        C202   1.418       .  A
C201        H205   1.079       .  S
C202        C203   1.410       .  A
C202        C256   1.510       .  S
C203        H206   1.082       .  S
C207        C208   1.401       .  A
C207        C212   1.397       .  A
C208        C209   1.415       .  A
C208        H213   1.081       .  S
C209        C210   1.415       .  A
C209        C229   1.513       .  S
C210        C211   1.417       .  A
C210        H214   1.079       .  S
C211        C212   1.409       .  A
C211        C227   1.506       .  S
C212        H215   1.082       .  S
C216        C308   1.450       .  S
C216        C217   1.398       .  A
C216        C221   1.401       .  A
C217        C218   1.411       .  A
C217        H222   1.082       .  S
C218        C219   1.416       .  A
C218        C238   1.510       .  S
C219        C220   1.420       .  A
C219        H223   1.079       .  S
C220        C221   1.414       .  A
C220        C236   1.516       .  S
C221        H224   1.081       .  S
C225        C304   1.444       .  S
C225        C546   1.393       .  A
C225        C230   1.403       .  A
C226       C1185   1.395       .  A
C226        C227   1.407       .  A
C226        H231   1.082       .  S
C227       C1188   1.416       .  A
C228        C547   1.415       .  A
C228        C229   1.415       .  A
C228        H232   1.078       .  S
C229        C230   1.415       .  A
C230        H233   1.081       .  S
C234        C302   1.454       .  S
C234        C235   1.400       .  A
C234        C559   1.402       .  A
C235        C236   1.413       .  A
C235        H240   1.081       .  S
C236        C237   1.420       .  A
C237        C558   1.417       .  A
C237        H241   1.078       .  S
C238       C1197   1.417       .  A
C238        C239   1.414       .  A
C239       C1194   1.403   1_455  A
C239        H242   1.082       .  S
C243        C300   1.448       .  S
C243        C244   1.401       .  A
C243        C568   1.399       .  A
C244        H249   1.082       .  S
C245        C566   1.413       .  A
C246       C1205   1.415   1_455  A
C246        C247   1.414       .  A
C246        H250   1.079   1_455  S
C248       C1203   1.400   1_455  A
C248        H251   1.081       .  S
C252        C298   1.455       .  S
C252        C573   1.403       .  A
C252        C257   1.399       .  A
C253       C1212   1.405   1_455  A
C253        C254   1.417       .  A
C253        H258   1.081       .  S
C254       C1215   1.417       .  A
C255        C574   1.417       .  A
C255        C256   1.419       .  A
C255        H259   1.079       .  S
C256        C257   1.411       .  A
C257        H260   1.082       .  S
O261       C1231   1.278   1_455  A
O262       C1232   1.278   1_455  A
O263       C1233   1.273       .  A
O263       Cu269   1.984       .  S
O264       C1234   1.279   1_455  A
O265        C274   1.278       .  A
O265       Cu270   2.012       .  S
O266        C273   1.282       .  A
O267        C272   1.276       .  A
O267       Cu270   2.011       .  S
O268        C271   1.276       .  A
O268       Cu270   2.013       .  S
Cu269     Cu1070   2.377   1_455  S
Cu270      Cu429   2.375       .  S
C271        O581   1.279       .  A
C272        O582   1.279       .  A
C272        C299   1.443       .  S
C273        O583   1.273       .  A
C273        C289   1.472       .  S
C274        O584   1.278       .  A
C274        C293   1.476       .  S
O275        C285   1.280       .  A
O275       Cu283   2.033       .  S
O276        C286   1.279       .  A
O276       Cu283   2.032       .  S
O277        C287   1.276       .  A
O277       Cu283   2.013       .  S
O278        C288   1.278       .  A
O278       Cu283   2.011       .  S
O279       C1248   1.277       .  A
O279       Cu284   2.007       .  S
O280       C1247   1.280   1_455  A
O280       Cu284   2.004       .  S
O281       C1246   1.276   1_455  A
O281       Cu284   2.015       .  S
O282       C1245   1.276   1_455  A
O282       Cu284   2.013       .  S
Cu283      Cu604   2.374       .  S
Cu284     Cu1243   2.375   1_455  S
C285        O602   1.277       .  A
C285        C301   1.449       .  S
C286        O601   1.278       .  A
C286        C297   1.449       .  S
C287        O600   1.280       .  A
C287        C290   1.479       .  S
C288        O599   1.277       .  A
C288        C294   1.476       .  S
C289        C290   1.341       .  D
C289        H611   1.087       .  S
C290        H292   1.086       .  S
H291       C1249   1.087       .  S
C293        C294   1.345       .  D
C293        H615   1.087       .  S
C294        H296   1.087       .  S
H295       C1253   1.087       .  S
C297        C298   1.214       .  T
C299        C300   1.211       .  T
C301        C302   1.214       .  T
C303        C304   1.208       .  T
C305        C306   1.212       .  T
C307        C308   1.212       .  T
C309        C310   1.344       .  D
C309        H311   1.087       .  S
C310        H312   1.087       .  S
C313        C314   1.344       .  D
C313        H315   1.087   1_565  S
C314        H316   1.087       .  S
C317        C318   1.210       .  T
C319        C320   1.213       .  T
O321        C331   1.273       .  A
O321       Cu489   1.992       .  S
O322        C332   1.272       .  A
O322       Cu329   1.987   1_544  S
O323        C493   1.282       .  A
O323       Cu329   2.040   1_545  S
O324        C494   1.282       .  A
O324       Cu489   2.043       .  S
O325        C494   1.274       .  A
O325       Cu330   2.002       .  S
O326        C493   1.272       .  A
O326       Cu490   1.990       .  S
O327        C332   1.284       .  A
O327       Cu490   2.037   1_554  S
O328        C331   1.284       .  A
O328       Cu330   2.037       .  S
Cu329       O481   1.987       .  S
Cu329       O484   2.040       .  S
Cu329      Cu490   2.376   1_565  S
Cu330       O486   2.002   1_565  S
Cu330       O487   2.036       .  S
Cu330      Cu489   2.374       .  S
C331        C470   1.478       .  S
C332        C473   1.477       .  S
C333        O483   1.282       .  A
C333        O486   1.274       .  A
C333        C477   1.446       .  S
C334        O484   1.282       .  A
C334        O485   1.272       .  A
C334        C480   1.439       .  S
O335        C345   1.272       .  A
O335       Cu343   1.987   1_565  S
O336        C346   1.272       .  A
O336       Cu343   1.988       .  S
O337        C347   1.283       .  A
O337       Cu343   2.049   1_565  S
O338        C348   1.283       .  A
O338       Cu343   2.048       .  S
O339        C348   1.274       .  A
O339       Cu344   2.004       .  S
O340        C347   1.273       .  A
O340       Cu344   2.003   1_565  S
O341        C346   1.284       .  A
O341       Cu344   2.040       .  S
O342        C345   1.284       .  A
O342       Cu344   2.038   1_565  S
Cu343      Cu344   2.374       .  S
C345        C474   1.477       .  S
C346        C469   1.478       .  S
C347        C467   1.449       .  S
C348        C465   1.448       .  S
C349        C478   1.451       .  S
C349        C350   1.406       .  A
C349        C354   1.396       .  A
C350        C351   1.417       .  A
C350        H355   1.082       .  S
C351        C352   1.415       .  A
C351        C405   1.514       .  S
C352        C353   1.413       .  A
C352        H356   1.079       .  S
C353        C354   1.408       .  A
C353        C407   1.505       .  S
C354        H357   1.082       .  S
C358        C466   1.453       .  S
C358        C359   1.405       .  A
C358        C363   1.394       .  A
C359        C360   1.419       .  A
C359        H364   1.081       .  S
C360        C361   1.416       .  A
C360        C414   1.516       .  S
C361        C362   1.416       .  A
C361        H365   1.079       .  S
C362        C363   1.408       .  A
C362        C416   1.506       .  S
C363        H366   1.082       .  S
C367        C639   1.451       .  S
C367        C368   1.404       .  A
C367        C372   1.395       .  A
C368        C369   1.417       .  A
C368        H373   1.081       .  S
C369        C370   1.416       .  A
C369        C389   1.515       .  S
C370        C371   1.416       .  A
C370        H374   1.079       .  S
C371        C372   1.408       .  A
C371        C387   1.506       .  S
C372        H375   1.082       .  S
C376        C468   1.454       .  S
C376        C377   1.407       .  A
C376        C381   1.395       .  A
C377        C378   1.419       .  A
C377        H382   1.081       .  S
C378        C379   1.417       .  A
C378        C398   1.520       .  S
C379        C380   1.415       .  A
C379        H383   1.078       .  S
C380        C381   1.409       .  A
C380        C396   1.510       .  S
C381        H384   1.081       .  S
C385        C464   1.455       .  S
C385        C706   1.400       .  A
C385        C390   1.403       .  A
C386        C387   1.408       .  A
C386        H391   1.082       .  S
C388        C707   1.417       .  A
C388        C389   1.416       .  A
C388        H392   1.079       .  S
C389        C390   1.416       .  A
C390        H393   1.081       .  S
C394        C462   1.446       .  S
C394        C395   1.399       .  A
C394        C719   1.398       .  A
C395        C396   1.412       .  A
C395        H400   1.081       .  S
C396        C397   1.416       .  A
C397        C718   1.413       .  A
C397        H401   1.078       .  S
C398        C399   1.418       .  A
C399        H402   1.081       .  S
C403        C460   1.451       .  S
C403        C404   1.399       .  A
C403        C728   1.397       .  A
C404        C565   1.415       .  A
C404        H409   1.081       .  S
C405        C564   1.416       .  A
C405        C726   1.416       .  A
C406        C407   1.414       .  A
C406        H410   1.080       .  S
C407        C568   1.410       .  A
C408        C567   1.404       .  A
C408        H411   1.082       .  S
C412        C458   1.447       .  S
C412        C733   1.399       .  A
C412        C417   1.400       .  A
C413        C414   1.418       .  A
C413        H418   1.082       .  S
C415        C734   1.411       .  A
C415        C416   1.416       .  A
C415        H419   1.080       .  S
C416        C417   1.410       .  A
C417        H420   1.082       .  S
O421       Cu589   2.035       .  S
O422       Cu589   2.035       .  S
O423       Cu429   2.013       .  S
O424       Cu589   1.985       .  S
O425        C434   1.277       .  A
O425       Cu430   2.009       .  S
O426        C433   1.279       .  A
O426       Cu590   2.011       .  S
O427        C432   1.277       .  A
O427       Cu430   2.019       .  S
O428        C431   1.278       .  A
O428       Cu430   2.022       .  S
Cu429       O581   2.026       .  S
Cu429       O582   2.028       .  S
Cu429       O584   2.009       .  S
Cu430       O586   2.009   1_554  S
Cu430      Cu909   2.375       .  S
C431        O741   1.279       .  A
C431        C623   1.447       .  S
C432        O742   1.279       .  A
C432        C459   1.445       .  S
C433        O743   1.276       .  A
C433        C449   1.475       .  S
C434        O744   1.278       .  A
C434        C453   1.474       .  S
O435        C445   1.277       .  A
O435       Cu443   2.015       .  S
O436        C446   1.277       .  A
O436       Cu443   2.015       .  S
O437        C447   1.277       .  A
O437       Cu443   2.010       .  S
O438        C448   1.278       .  A
O438       Cu443   2.007       .  S
O439       Cu444   2.033       .  S
O440       Cu444   2.038       .  S
O441       Cu444   2.010       .  S
O442       Cu444   2.008       .  S
Cu443      Cu764   2.376       .  S
C445        O762   1.278       .  A
C445        C461   1.440       .  S
C446        O761   1.278       .  A
C446        C457   1.442       .  S
C447        O760   1.279       .  A
C447        C450   1.475       .  S
C448        O759   1.277       .  A
C448        C454   1.473       .  S
C449        C450   1.344       .  D
C449        H771   1.087       .  S
C450        H452   1.087       .  S
C453        C454   1.344       .  D
C453        H775   1.087       .  S
C454        H456   1.087       .  S
C457        C458   1.210       .  T
C459        C460   1.212       .  T
C461        C462   1.209       .  T
C463        C591   1.450       .  S
C463        C464   1.214       .  T
C465        C466   1.214       .  T
C467        C468   1.214       .  T
C469        C470   1.339   1_545  D
C469        H471   1.087       .  S
C470        H472   1.087       .  S
C473        C474   1.338   1_545  D
C473        H475   1.087       .  S
C474        H476   1.087       .  S
C477        C478   1.213       .  T
C479        C527   1.445       .  S
C479        C480   1.209   1_554  T
O481        C491   1.272       .  A
O482        C492   1.273       .  A
O482       Cu489   1.988       .  S
O483       Cu489   2.044   1_545  S
O485       Cu490   1.989   1_565  S
O487        C492   1.283       .  A
O488        C491   1.283       .  A
O488       Cu490   2.035   1_565  S
C491        C630   1.475       .  S
C492        C633   1.477       .  S
C493        C637   1.439       .  S
C494        C640   1.445       .  S
O495        C505   1.273       .  A
O495       Cu503   1.992       .  S
O496        C506   1.272       .  A
O496       Cu503   1.989       .  S
O497        C507   1.283       .  A
O497       Cu503   2.048       .  S
O498        C508   1.283       .  A
O498       Cu503   2.049   1_545  S
O499        C508   1.273       .  A
O499       Cu504   2.002   1_545  S
O500        C507   1.274       .  A
O500       Cu504   2.003       .  S
O501        C506   1.283       .  A
O501       Cu504   2.032       .  S
O502        C505   1.283       .  A
O502       Cu504   2.033       .  S
Cu503      Cu504   2.374       .  S
C505        C634   1.477       .  S
C506        C629   1.476   1_565  S
C507        C627   1.448       .  S
C508        C625   1.448       .  S
C509        C638   1.445   1_554  S
C509        C510   1.405       .  A
C509        C514   1.393       .  A
C510        C511   1.417       .  A
C510        H515   1.081   1_554  S
C511        C512   1.412       .  A
C511        C565   1.510       .  S
C512        C513   1.411       .  A
C512        H516   1.079       .  S
C513        C514   1.404       .  A
C513        C567   1.498       .  S
C514        H517   1.082       .  S
C518        C626   1.454       .  S
C518        C519   1.408       .  A
C518        C523   1.396       .  A
C519        C520   1.419       .  A
C519        H524   1.082       .  S
C520        C521   1.416       .  A
C520        C574   1.517       .  S
C521        C522   1.414       .  A
C521        H525   1.079       .  S
C522        C523   1.408       .  A
C522        C576   1.506       .  S
C523        H526   1.082       .  S
C527        C528   1.405       .  A
C527        C532   1.393       .  A
C528        C529   1.416       .  A
C528        H533   1.082       .  S
C529        C530   1.414       .  A
C529        C549   1.513       .  S
C530        C531   1.414       .  A
C530        H534   1.079       .  S
C531        C532   1.405       .  A
C531        C547   1.503       .  S
C532        H535   1.082       .  S
C536        C628   1.453       .  S
C536        C537   1.405       .  A
C536        C541   1.394       .  A
C537        C538   1.418       .  A
C537        H542   1.081       .  S
C538        C539   1.418       .  A
C538        C558   1.516       .  S
C539        C540   1.415       .  A
C539        H543   1.079       .  S
C540        C541   1.409       .  A
C540        C556   1.508       .  S
C541        H544   1.081       .  S
C545        C624   1.452       .  S
C545        C866   1.398       .  A
C545        C550   1.400       .  A
C546        C547   1.405       .  A
C546        H551   1.082       .  S
C548        C867   1.418       .  A
C548        C549   1.415       .  A
C548        H552   1.079       .  S
C549        C550   1.415       .  A
C550        H553   1.081       .  S
C554        C622   1.451       .  S
C554        C555   1.402       .  A
C554        C879   1.402       .  A
C555        C556   1.412       .  A
C555        H560   1.082       .  S
C556        C557   1.415       .  A
C557        C878   1.410       .  A
C557        H561   1.079       .  S
C558        C559   1.415       .  A
C559        H562   1.081       .  S
C563        C620   1.454       .  S
C563        C564   1.402       .  A
C563        C888   1.398       .  A
C564        H569   1.082       .  S
C565        C886   1.413       .  A
C566        C567   1.411       .  A
C566        H570   1.078       .  S
C568        H571   1.082       .  S
C572        C618   1.449       .  S
C572        C893   1.400       .  A
C572        C577   1.400       .  A
C573        C574   1.417       .  A
C573        H578   1.081       .  S
C575        C894   1.412       .  A
C575        C576   1.415       .  A
C575        H579   1.080       .  S
C576        C577   1.411       .  A
C577        H580   1.082       .  S
O583       Cu589   1.982   1_556  S
O585        C594   1.278       .  A
O585       Cu590   2.011       .  S
O586        C593   1.279       .  A
O587        C592   1.277       .  A
O587       Cu590   2.019       .  S
O588        C591   1.277       .  A
O588       Cu590   2.022       .  S
Cu590      Cu749   2.375       .  S
C591        O901   1.280       .  A
C592        O902   1.280       .  A
C592        C619   1.449       .  S
C593        O903   1.276       .  A
C593        C609   1.475       .  S
C594        O904   1.278       .  A
C594        C613   1.475       .  S
O595        C605   1.278       .  A
O595       Cu603   2.023       .  S
O596        C606   1.277       .  A
O596       Cu603   2.019       .  S
O597        C607   1.276       .  A
O597       Cu603   2.005       .  S
O598        C608   1.278       .  A
O598       Cu603   2.005       .  S
O599       Cu604   2.009       .  S
O600       Cu604   2.007       .  S
O601       Cu604   2.024       .  S
O602       Cu604   2.021       .  S
Cu603      Cu924   2.375       .  S
C605        O922   1.278       .  A
C605        C621   1.446       .  S
C606        O921   1.278       .  A
C606        C617   1.444       .  S
C607        O920   1.279       .  A
C607        C610   1.474       .  S
C608        O919   1.277       .  A
C608        C614   1.475       .  S
C609        C610   1.343       .  D
C609        H931   1.087       .  S
C610        H612   1.087       .  S
C613        C614   1.345       .  D
C613        H935   1.087       .  S
C614        H616   1.087       .  S
C617        C618   1.211       .  T
C619        C620   1.214       .  T
C621        C622   1.212       .  T
C623        C624   1.213       .  T
C625        C626   1.214       .  T
C627        C628   1.214       .  T
C629        C630   1.338   1_545  D
C629        H631   1.087       .  S
C630        H632   1.087       .  S
C633        C634   1.339       .  D
C633        H635   1.087   1_565  S
C634        H636   1.087       .  S
C637        C638   1.209       .  T
C639        C640   1.212       .  T
O641        C651   1.279       .  A
O641       Cu809   2.009       .  S
O642        C652   1.276       .  A
O642       Cu649   2.006   1_554  S
O643        C813   1.277       .  A
O643       Cu649   2.016   1_545  S
O644        C814   1.277       .  A
O644       Cu809   2.016       .  S
O645        C814   1.278       .  A
O645       Cu650   2.023       .  S
O646        C813   1.277       .  A
O646       Cu810   2.017   1_545  S
O647        C652   1.279       .  A
O647       Cu810   2.010   1_554  S
O648        C651   1.277       .  A
O648       Cu650   2.008       .  S
Cu649       O801   2.005   1_565  S
Cu649       O804   2.018       .  S
Cu649      Cu810   2.376       .  S
Cu650       O806   2.027   1_565  S
Cu650       O807   2.007       .  S
Cu650      Cu809   2.376       .  S
C651        C790   1.475       .  S
C652        C793   1.474       .  S
C653        O803   1.277       .  A
C653        O806   1.279       .  A
C653        C797   1.444       .  S
C654        O804   1.277       .  A
C654        O805   1.277       .  A
C654        C800   1.441       .  S
O655        C665   1.276       .  A
O655       Cu663   2.004       .  S
O656        C666   1.278       .  A
O656       Cu663   2.004       .  S
O657        C667   1.279       .  A
O657       Cu663   2.026       .  S
O658        C668   1.279       .  A
O658       Cu663   2.029   1_545  S
O659        C668   1.277       .  A
O659       Cu664   2.016   1_545  S
O660        C667   1.277       .  A
O660       Cu664   2.015       .  S
O661        C666   1.278       .  A
O661       Cu664   2.012       .  S
O662        C665   1.279       .  A
O662       Cu664   2.012       .  S
Cu663      Cu664   2.376       .  S
C665        C794   1.474       .  S
C666        C789   1.475       .  S
C667        C787   1.443       .  S
C668        C785   1.445       .  S
C669        C798   1.450       .  S
C669        C670   1.399       .  A
C669        C674   1.400       .  A
C670        C671   1.414       .  A
C670        H675   1.080       .  S
C671        C672   1.415       .  A
C671        C725   1.514       .  S
C672        C673   1.416       .  A
C672        H676   1.078       .  S
C673        C674   1.411       .  A
C673        C727   1.509       .  S
C674        H677   1.082       .  S
C678        C786   1.451       .  S
C678        C679   1.401       .  A
C678        C683   1.399       .  A
C679        C680   1.413       .  A
C679        H684   1.082       .  S
C680        C681   1.411       .  A
C680        C734   1.505       .  S
C681        C682   1.413       .  A
C681        H685   1.079       .  S
C682        C683   1.413       .  A
C682        C736   1.509       .  S
C683        H686   1.081       .  S
C687        C959   1.448       .  S
C687        C688   1.397       .  A
C687        C692   1.402       .  A
C688        C689   1.407       .  A
C688        H693   1.083       .  S
C689        C690   1.413       .  A
C689        C709   1.502       .  S
C690        C691   1.417       .  A
C690        H694   1.080       .  S
C691        C692   1.415       .  A
C691        C707   1.512       .  S
C692        H695   1.081       .  S
C696        C788   1.449       .  S
C696        C697   1.402       .  A
C696        C701   1.397       .  A
C697        C698   1.415       .  A
C697        H702   1.082       .  S
C698        C699   1.414       .  A
C698        C718   1.508       .  S
C699        C700   1.409       .  A
C699        H703   1.080       .  S
C700        C701   1.409       .  A
C700        C716   1.498       .  S
C701        H704   1.083       .  S
C705        C784   1.448       .  S
C705       C1026   1.400       .  A
C705        C710   1.400       .  A
C706        C707   1.413       .  A
C706        H711   1.081       .  S
C708       C1027   1.413       .  A
C708        C709   1.413       .  A
C708        H712   1.080       .  S
C709        C710   1.410       .  A
C710        H713   1.083       .  S
C714        C782   1.447       .  S
C714        C715   1.400       .  A
C714       C1039   1.400       .  A
C715        C716   1.410       .  A
C715        H720   1.083       .  S
C716        C717   1.409       .  A
C717       C1038   1.410       .  A
C717        H721   1.080       .  S
C718        C719   1.411       .  A
C719        H722   1.081       .  S
C723        C780   1.447       .  S
C723        C724   1.399   1_556  A
C723       C1048   1.400   1_556  A
C724        C885   1.410       .  A
C724        H729   1.082   1_554  S
C725        C884   1.415       .  A
C725       C1046   1.414       .  A
C726        C727   1.417       .  A
C726        H730   1.079       .  S
C727        C888   1.412       .  A
C728        C887   1.413       .  A
C728        H731   1.080       .  S
C732        C778   1.448       .  S
C732       C1053   1.398       .  A
C732        C737   1.399       .  A
C733        C734   1.411       .  A
C733        H738   1.082       .  S
C735       C1054   1.411       .  A
C735        C736   1.414       .  A
C735        H739   1.078       .  S
C736        C737   1.414       .  A
C737        H740   1.081       .  S
O741       Cu909   2.027       .  S
O742       Cu909   2.026       .  S
O743       Cu749   2.006       .  S
O744       Cu909   2.005       .  S
O745        C754   1.277       .  A
O745       Cu750   2.009   1_554  S
O746        C753   1.279       .  A
O746       Cu910   2.010       .  S
O747        C752   1.277       .  A
O747       Cu750   2.019       .  S
O748        C751   1.278       .  A
O748       Cu750   2.020       .  S
Cu749       O901   2.033       .  S
Cu749       O902   2.034       .  S
Cu749       O904   2.006       .  S
Cu750       O906   2.009       .  S
Cu750     Cu1229   2.376       .  S
C751       O1061   1.277       .  A
C751        C943   1.442       .  S
C752       O1062   1.277       .  A
C752        C779   1.441       .  S
C753       O1063   1.277       .  A
C753        C769   1.475       .  S
C754       O1064   1.278       .  A
C754        C773   1.475       .  S
O755        C765   1.277       .  A
O755       Cu763   2.018       .  S
O756        C766   1.277       .  A
O756       Cu763   2.018       .  S
O757        C767   1.277       .  A
O757       Cu763   2.008       .  S
O758        C768   1.278       .  A
O758       Cu763   2.009       .  S
O759       Cu764   2.005       .  S
O760       Cu764   2.008       .  S
O761       Cu764   2.021       .  S
O762       Cu764   2.018       .  S
Cu763     Cu1084   2.376       .  S
C765       O1082   1.277       .  A
C765        C781   1.442       .  S
C766       O1081   1.278       .  A
C766        C777   1.443       .  S
C767       O1080   1.279       .  A
C767        C770   1.474       .  S
C768       O1079   1.277       .  A
C768        C774   1.475       .  S
C769        C770   1.344       .  D
C769       H1091   1.087       .  S
C770        H772   1.087       .  S
C773        C774   1.344       .  D
C773       H1095   1.087       .  S
C774        H776   1.087       .  S
C777        C778   1.210       .  T
C779        C780   1.209       .  T
C781        C782   1.210       .  T
C783        C911   1.443       .  S
C783        C784   1.211       .  T
C785        C786   1.212       .  T
C787        C788   1.211       .  T
C789        C790   1.345       .  D
C789        H791   1.087       .  S
C790        H792   1.087       .  S
C793        C794   1.343       .  D
C793        H795   1.087       .  S
C794        H796   1.087       .  S
C797        C798   1.211       .  T
C799        C847   1.447       .  S
C799        C800   1.210       .  T
O801        C811   1.278       .  A
O802        C812   1.277       .  A
O802       Cu809   2.008   1_545  S
O803       Cu809   2.015   1_545  S
O805       Cu810   2.017       .  S
O807        C812   1.278   1_565  A
O808        C811   1.277       .  A
O808       Cu810   2.011   1_545  S
C811        C950   1.475       .  S
C812        C953   1.474   1_545  S
C813        C957   1.440       .  S
C814        C960   1.443       .  S
O815        C825   1.277       .  A
O815       Cu823   2.008       .  S
O816        C826   1.278       .  A
O816       Cu823   2.007   1_545  S
O817        C827   1.279       .  A
O817       Cu823   2.031       .  S
O818        C828   1.279       .  A
O818       Cu823   2.031   1_545  S
O819        C828   1.277       .  A
O819       Cu824   2.020   1_545  S
O820        C827   1.278       .  A
O820       Cu824   2.025       .  S
O821        C826   1.277       .  A
O821       Cu824   2.007   1_545  S
O822        C825   1.279       .  A
O822       Cu824   2.008       .  S
Cu823      Cu824   2.375       .  S
C825        C954   1.474       .  S
C826        C949   1.474       .  S
C827        C947   1.450       .  S
C828        C945   1.448       .  S
C829        C958   1.446   1_554  S
C829        C830   1.397       .  A
C829        C834   1.399       .  A
C830        C831   1.409       .  A
C830        H835   1.082   1_554  S
C831        C832   1.412       .  A
C831        C885   1.503       .  S
C832        C833   1.416       .  A
C832        H836   1.079       .  S
C833        C834   1.413       .  A
C833        C887   1.510       .  S
C834        H837   1.081       .  S
C838        C946   1.453       .  S
C838        C839   1.401       .  A
C838        C843   1.401       .  A
C839        C840   1.412       .  A
C839        H844   1.082       .  S
C840        C841   1.412       .  A
C840        C894   1.506       .  S
C841        C842   1.414       .  A
C841        H845   1.078       .  S
C842        C843   1.416       .  A
C842        C896   1.514       .  S
C843        H846   1.080       .  S
C847        C848   1.399       .  A
C847        C852   1.400   1_556  A
C848        C849   1.409   1_556  A
C848        H853   1.083       .  S
C849        C850   1.413       .  A
C849        C869   1.505       .  S
C850        C851   1.417       .  A
C850        H854   1.079       .  S
C851        C852   1.412       .  A
C851        C867   1.511       .  S
C852        H855   1.081   1_554  S
C856        C948   1.455       .  S
C856        C857   1.404       .  A
C856        C861   1.400       .  A
C857        C858   1.417       .  A
C857        H862   1.082       .  S
C858        C859   1.412       .  A
C858        C878   1.509       .  S
C859        C860   1.410       .  A
C859        H863   1.080       .  S
C860        C861   1.410       .  A
C860        C876   1.500       .  S
C861        H864   1.083       .  S
C865        C944   1.447       .  S
C865       C1186   1.401       .  A
C865        C870   1.400       .  A
C866        C867   1.412       .  A
C866        H871   1.081       .  S
C868       C1187   1.416       .  A
C868        C869   1.412       .  A
C868        H872   1.080       .  S
C869        C870   1.409   1_554  A
C870        H873   1.083       .  S
C874        C942   1.452       .  S
C874        C875   1.400       .  A
C874       C1199   1.402       .  A
C875        C876   1.411       .  A
C875        H880   1.083       .  S
C876        C877   1.410       .  A
C877       C1198   1.411       .  A
C877        H881   1.080       .  S
C878        C879   1.413       .  A
C879        H882   1.082       .  S
C883        C940   1.451       .  S
C883        C884   1.403       .  A
C883       C1208   1.399       .  A
C884        H889   1.081       .  S
C885       C1206   1.411       .  A
C886        C887   1.417       .  A
C886        H890   1.078       .  S
C888        H891   1.082       .  S
C892        C938   1.452       .  S
C892       C1213   1.400       .  A
C892        C897   1.401       .  A
C893        C894   1.412       .  A
C893        H898   1.082       .  S
C895       C1214   1.412       .  A
C895        C896   1.414       .  A
C895        H899   1.078       .  S
C896        C897   1.416       .  A
C897        H900   1.080       .  S
O903       Cu909   2.006   1_556  S
O905        C914   1.277       .  A
O905       Cu910   2.009       .  S
O906        C913   1.279       .  A
O907        C912   1.277       .  A
O907       Cu910   2.018       .  S
O908        C911   1.277       .  A
O908       Cu910   2.018       .  S
Cu910     Cu1069   2.376       .  S
C911       O1221   1.278       .  A
C912       O1222   1.279       .  A
C912        C939   1.445       .  S
C913       O1223   1.277       .  A
C913        C929   1.474       .  S
C914       O1224   1.278       .  A
C914        C933   1.474       .  S
O915        C925   1.279       .  A
O915       Cu923   2.028       .  S
O916        C926   1.278       .  A
O916       Cu923   2.026       .  S
O917        C927   1.276       .  A
O917       Cu923   2.005       .  S
O918        C928   1.278       .  A
O918       Cu923   2.005       .  S
O919       Cu924   2.012       .  S
O920       Cu924   2.012       .  S
O921       Cu924   2.024       .  S
O922       Cu924   2.023       .  S
Cu923     Cu1244   2.375       .  S
C925       O1242   1.278       .  A
C925        C941   1.447       .  S
C926       O1241   1.278       .  A
C926        C937   1.447       .  S
C927       O1240   1.279       .  A
C927        C930   1.474       .  S
C928       O1239   1.277       .  A
C928        C934   1.474       .  S
C929        C930   1.343       .  D
C929       H1251   1.087       .  S
C930        H932   1.087       .  S
C933        C934   1.345       .  D
C933       H1255   1.087       .  S
C934        H936   1.087       .  S
C937        C938   1.213       .  T
C939        C940   1.212       .  T
C941        C942   1.213       .  T
C943        C944   1.210       .  T
C945        C946   1.213       .  T
C947        C948   1.215       .  T
C949        C950   1.344       .  D
C949        H951   1.087       .  S
C950        H952   1.087       .  S
C953        C954   1.344       .  D
C953        H955   1.087   1_565  S
C954        H956   1.087       .  S
C957        C958   1.209       .  T
C959        C960   1.210       .  T
O961        C971   1.278       .  A
O961      Cu1129   2.009       .  S
O962        C972   1.276       .  A
O962       Cu969   2.006   1_554  S
O963       C1133   1.278   1_556  A
O963       Cu969   2.023   1_545  S
O964       C1134   1.278       .  A
O964      Cu1129   2.024   1_565  S
O965       C1134   1.277       .  A
O965       Cu970   2.018   1_565  S
O966       C1133   1.276       .  A
O966      Cu1130   2.013   1_545  S
O967        C972   1.279       .  A
O967      Cu1130   2.012       .  S
O968        C971   1.277       .  A
O968       Cu970   2.007       .  S
Cu969      O1121   2.003   1_565  S
Cu969      O1124   2.026       .  S
Cu969     Cu1130   2.376   1_556  S
Cu970      O1126   2.021       .  S
Cu970      O1127   2.007       .  S
Cu970     Cu1129   2.376       .  S
C971       C1110   1.474       .  S
C972       C1113   1.475       .  S
C973       O1123   1.278       .  A
C973       O1126   1.278       .  A
C973       C1117   1.445       .  S
C974       O1124   1.279   1_554  A
C974       O1125   1.276       .  A
C974       C1120   1.443       .  S
O975        C985   1.277       .  A
O975       Cu983   2.007   1_565  S
O976        C986   1.278       .  A
O976       Cu983   2.008       .  S
O977        C987   1.277       .  A
O977       Cu983   2.014   1_565  S
O978        C988   1.277       .  A
O978       Cu983   2.016       .  S
O979        C988   1.277       .  A
O979       Cu984   2.018   1_545  S
O980        C987   1.277       .  A
O980       Cu984   2.016       .  S
O981        C986   1.277       .  A
O981       Cu984   2.010   1_545  S
O982        C985   1.279       .  A
O982       Cu984   2.009       .  S
Cu983      Cu984   2.376   1_545  S
C985       C1114   1.475       .  S
C986       C1109   1.475       .  S
C987       C1107   1.439       .  S
C988       C1105   1.441       .  S
C989       C1118   1.450       .  S
C989        C990   1.400       .  A
C989        C994   1.399       .  A
C990        C991   1.413       .  A
C990        H995   1.082       .  S
C991        C992   1.414       .  A
C991       C1045   1.508       .  S
C992        C993   1.413       .  A
C992        H996   1.079       .  S
C993        C994   1.412       .  A
C993       C1047   1.507       .  S
C994        H997   1.082       .  S
C998       C1106   1.446       .  S
C998        C999   1.400       .  A
C998       C1003   1.400       .  A
C999       C1000   1.411       .  A
C999       H1004   1.082       .  S
C1000      C1001   1.410       .  A
C1000      C1054   1.504       .  S
C1001      C1002   1.411       .  A
C1001      H1005   1.080       .  S
C1002      C1003   1.410       .  A
C1002      C1056   1.502       .  S
C1003      H1006   1.082       .  S
C1007      C1279   1.450       .  S
C1007      C1008   1.402       .  A
C1007      C1012   1.400       .  A
C1008      C1009   1.413       .  A
C1008      H1013   1.082       .  S
C1009      C1010   1.414       .  A
C1009      C1029   1.510       .  S
C1010      C1011   1.413       .  A
C1010      H1014   1.079       .  S
C1011      C1012   1.410       .  A
C1011      C1027   1.506       .  S
C1012      H1015   1.082       .  S
C1016      C1108   1.444       .  S
C1016      C1017   1.397       .  A
C1016      C1021   1.398       .  A
C1017      C1018   1.410       .  A
C1017      H1022   1.082       .  S
C1018      C1019   1.410       .  A
C1018      C1038   1.503       .  S
C1019      C1020   1.413       .  A
C1019      H1023   1.079       .  S
C1020      C1021   1.411       .  A
C1020      C1036   1.504       .  S
C1021      H1024   1.081       .  S
C1025      C1104   1.449       .  S
C1025      C1030   1.399       .  A
C1026      C1027   1.412       .  A
C1026      H1031   1.082       .  S
C1028      C1029   1.415       .  A
C1028      H1032   1.079       .  S
C1029      C1030   1.413       .  A
C1030      H1033   1.081       .  S
C1034      C1102   1.450       .  S
C1034      C1035   1.395       .  A
C1035      C1036   1.409       .  A
C1035      H1040   1.082       .  S
C1036      C1037   1.413       .  A
C1037      H1041   1.079       .  S
C1038      C1039   1.412       .  A
C1039      H1042   1.082       .  S
C1043      C1100   1.444       .  S
C1043      C1044   1.401   1_456  A
C1044      C1205   1.414       .  A
C1044      H1049   1.081   1_554  S
C1045      C1204   1.412       .  A
C1046      C1047   1.412       .  A
C1046      H1050   1.078       .  S
C1047      C1208   1.410       .  A
C1048      C1207   1.411       .  A
C1048      H1051   1.081   1_554  S
C1052      C1098   1.451       .  S
C1052      C1057   1.396       .  A
C1053      C1054   1.411       .  A
C1053      H1058   1.082       .  S
C1055      C1056   1.411       .  A
C1055      H1059   1.079       .  S
C1056      C1057   1.408       .  A
C1057      H1060   1.082       .  S
O1061     Cu1229   2.017       .  S
O1062     Cu1229   2.016       .  S
O1063     Cu1069   2.007       .  S
O1064     Cu1229   2.007   1_554  S
O1065      C1074   1.283   1_655  A
O1065     Cu1070   2.033   1_554  S
O1066      C1073   1.280   1_655  A
O1066     Cu1230   2.008       .  S
O1067      C1072   1.274   1_655  A
O1067     Cu1070   2.001       .  S
O1068      C1071   1.274   1_655  A
O1068     Cu1070   2.001       .  S
Cu1069     O1221   2.022       .  S
Cu1069     O1222   2.026       .  S
Cu1069     O1224   2.005       .  S
Cu1070     O1226   2.033       .  S
C1071      C1263   1.440       .  S
C1072      C1099   1.439       .  S
C1073      C1089   1.480       .  S
C1074      C1093   1.476       .  S
O1075      C1085   1.282       .  A
O1075     Cu1083   2.040       .  S
O1076      C1086   1.281       .  A
O1076     Cu1083   2.040       .  S
O1077      C1087   1.273       .  A
O1077     Cu1083   1.983       .  S
O1078      C1088   1.272       .  A
O1078     Cu1083   1.987       .  S
O1079     Cu1084   2.009       .  S
O1080     Cu1084   2.008       .  S
O1081     Cu1084   2.021       .  S
O1082     Cu1084   2.018       .  S
C1085      C1101   1.444       .  S
C1086      C1097   1.445       .  S
C1087      C1090   1.473       .  S
C1088      C1094   1.476       .  S
C1089      C1090   1.342   1_455  D
C1090      H1092   1.087       .  S
C1093      C1094   1.338   1_455  D
C1094      H1096   1.087       .  S
C1097      C1098   1.212       .  T
C1099      C1100   1.208       .  T
C1101      C1102   1.212       .  T
C1103      C1231   1.444       .  S
C1103      C1104   1.211       .  T
C1105      C1106   1.209       .  T
C1107      C1108   1.208       .  T
C1109      C1110   1.344       .  D
C1109      H1111   1.087       .  S
C1110      H1112   1.087   1_545  S
C1113      C1114   1.344       .  D
C1113      H1115   1.087       .  S
C1114      H1116   1.087       .  S
C1117      C1118   1.212       .  T
C1119      C1167   1.448       .  S
C1119      C1120   1.211       .  T
O1121      C1131   1.278       .  A
O1122      C1132   1.277       .  A
O1122     Cu1129   2.010       .  S
O1123     Cu1129   2.024       .  S
O1125     Cu1130   2.014       .  S
O1127      C1132   1.278       .  A
O1128      C1131   1.277       .  A
O1128     Cu1130   2.010   1_546  S
C1131      C1270   1.474       .  S
C1132      C1273   1.475       .  S
C1133      C1277   1.442       .  S
C1134      C1280   1.444       .  S
O1135      C1145   1.277       .  A
O1135     Cu1143   2.008       .  S
O1136      C1146   1.278       .  A
O1136     Cu1143   2.008       .  S
O1137      C1147   1.278       .  A
O1137     Cu1143   2.021   1_565  S
O1138      C1148   1.278       .  A
O1138     Cu1143   2.022       .  S
O1139      C1148   1.278       .  A
O1139     Cu1144   2.026       .  S
O1140      C1147   1.279       .  A
O1140     Cu1144   2.029   1_565  S
O1141      C1146   1.277       .  A
O1141     Cu1144   2.007       .  S
O1142      C1145   1.278       .  A
O1142     Cu1144   2.007       .  S
Cu1143    Cu1144   2.375       .  S
C1145      C1274   1.474       .  S
C1146      C1269   1.473       .  S
C1147      C1267   1.448       .  S
C1148      C1265   1.446       .  S
C1149      C1278   1.448       .  S
C1149      C1150   1.399       .  A
C1149      C1154   1.396       .  A
C1150      C1151   1.413       .  A
C1150      H1155   1.081       .  S
C1151      C1152   1.415       .  A
C1151      C1205   1.511       .  S
C1152      C1153   1.415       .  A
C1152      H1156   1.078       .  S
C1153      C1154   1.411       .  A
C1153      C1207   1.508       .  S
C1154      H1157   1.081       .  S
C1158      C1266   1.451       .  S
C1158      C1159   1.399       .  A
C1158      C1163   1.400       .  A
C1159      C1160   1.413       .  A
C1159      H1164   1.082       .  S
C1160      C1161   1.413       .  A
C1160      C1214   1.507       .  S
C1161      C1162   1.414       .  A
C1161      H1165   1.079       .  S
C1162      C1163   1.413       .  A
C1162      C1216   1.507       .  S
C1163      H1166   1.082       .  S
C1167      C1168   1.400       .  A
C1167      C1172   1.396       .  A
C1168      C1169   1.414       .  A
C1168      H1173   1.081       .  S
C1169      C1170   1.418       .  A
C1169      C1189   1.514       .  S
C1170      C1171   1.417       .  A
C1170      H1174   1.078       .  S
C1171      C1172   1.410       .  A
C1171      C1187   1.509       .  S
C1172      H1175   1.081   1_554  S
C1176      C1268   1.453       .  S
C1176      C1177   1.401       .  A
C1176      C1181   1.403       .  A
C1177      C1178   1.412       .  A
C1177      H1182   1.082       .  S
C1178      C1179   1.410       .  A
C1178      C1198   1.506       .  S
C1179      C1180   1.413       .  A
C1179      H1183   1.080       .  S
C1180      C1181   1.414       .  A
C1180      C1196   1.508       .  S
C1181      H1184   1.082       .  S
C1185      C1264   1.446   1_554  S
C1185      C1190   1.402   1_455  A
C1186      C1187   1.411   1_556  A
C1186      H1191   1.082       .  S
C1188      C1189   1.418   1_455  A
C1188      H1192   1.079       .  S
C1189      C1190   1.414       .  A
C1190      H1193   1.081   1_554  S
C1194      C1262   1.452       .  S
C1194      C1195   1.398       .  A
C1195      C1196   1.412       .  A
C1195      H1200   1.082       .  S
C1196      C1197   1.413   1_655  A
C1197      H1201   1.080       .  S
C1198      C1199   1.415       .  A
C1199      H1202   1.082       .  S
C1203      C1260   1.450       .  S
C1203      C1204   1.400       .  A
C1204      H1209   1.082       .  S
C1206      C1207   1.414       .  A
C1206      H1210   1.079       .  S
C1208      H1211   1.082       .  S
C1212      C1258   1.453       .  S
C1212      C1217   1.398       .  A
C1213      C1214   1.412       .  A
C1213      H1218   1.082       .  S
C1215      C1216   1.413   1_455  A
C1215      H1219   1.079       .  S
C1216      C1217   1.410       .  A
C1217      H1220   1.082       .  S
O1223     Cu1229   2.007       .  S
O1225      C1234   1.277       .  A
O1225     Cu1230   2.009       .  S
O1226      C1233   1.281   1_655  A
O1227      C1232   1.277       .  A
O1227     Cu1230   2.019       .  S
O1228      C1231   1.278       .  A
O1228     Cu1230   2.021       .  S
C1232      C1259   1.445       .  S
C1233      C1249   1.471       .  S
C1234      C1253   1.476       .  S
O1235      C1245   1.281       .  A
O1235     Cu1243   2.037       .  S
O1236      C1246   1.280       .  A
O1236     Cu1243   2.035       .  S
O1237      C1247   1.276       .  A
O1237     Cu1243   2.013       .  S
O1238      C1248   1.279   1_655  A
O1238     Cu1243   2.012       .  S
O1239     Cu1244   2.011       .  S
O1240     Cu1244   2.009       .  S
O1241     Cu1244   2.023       .  S
O1242     Cu1244   2.023       .  S
C1245      C1261   1.447       .  S
C1246      C1257   1.447       .  S
C1247      C1250   1.478       .  S
C1248      C1254   1.475       .  S
C1249      C1250   1.341   1_455  D
C1250      H1252   1.086       .  S
C1253      C1254   1.344   1_655  D
C1254      H1256   1.087       .  S
C1257      C1258   1.213       .  T
C1259      C1260   1.212       .  T
C1261      C1262   1.213       .  T
C1263      C1264   1.209       .  T
C1265      C1266   1.212       .  T
C1267      C1268   1.213       .  T
C1269      C1270   1.344       .  D
C1269      H1271   1.087       .  S
C1270      H1272   1.087       .  S
C1273      C1274   1.344       .  D
C1273      H1275   1.087       .  S
C1274      H1276   1.087       .  S
C1277      C1278   1.210       .  T
C1279      C1280   1.211       .  T
