geometry optimzed in LAMMPS
_audit_creation_date              2020-12-01 
_audit_creation_method            'lammps2cif' 
_symmetry_space_group_name_H-M    'P1' 
_symmetry_Int_Tables_number       1 
_symmetry_cell_setting            triclinic 
loop_ 
_symmetry_equiv_pos_as_xyz 
  x,y,z 
_cell_length_a                    39.92060701 
_cell_length_b                    35.69924583171037 
_cell_length_c                    44.81723756432289 
_cell_angle_alpha                 100.7868415998451 
_cell_angle_beta                  90.07783519336016 
_cell_angle_gamma                 123.80973063592464 
loop_ 
_atom_site_label 
_atom_site_type_symbol 
_atom_site_fract_x 
_atom_site_fract_y 
_atom_site_fract_z 
_atom_site_charge 
C1          C  0.37219351  0.17309809  0.00141660     0.80100
N2          N  0.33128831  0.15072105  0.00102081    -0.78200
C3          C  0.31335026  0.17390775  0.00152037     0.82600
N4          N  0.33706299  0.22019127  0.00270159    -0.78100
C5          C  0.37805401  0.24304485  0.00277476     0.82700
N6          N  0.39513097  0.21910384  0.00228524    -0.79800
C7          C  0.35851964  0.15444087  0.24767604     0.80100
N8          N  0.31736154  0.13176576  0.24535686    -0.78200
C9          C  0.29976428  0.15518548  0.24464791     0.82600
N10         N  0.32381482  0.20142224  0.24616079    -0.78100
C11         C  0.36488057  0.22455414  0.24826606     0.82700
N12         N  0.38197511  0.20077858  0.24915533    -0.79800
C13         C  0.17540750  0.39481017  0.09607324     0.80100
N14         N  0.21653973  0.41885569  0.09777412    -0.78200
C15         C  0.23572867  0.39729757  0.09859556     0.82600
N16         N  0.21320111  0.35110078  0.09750375    -0.78100
C17         C  0.17207996  0.32654184  0.09607201     0.82700
N18         N  0.15350843  0.34877596  0.09520683    -0.79800
C19         C  0.16575253  0.37899870  0.34554208     0.80100
N20         N  0.14255198  0.33265450  0.34429063    -0.78200
C21         C  0.15956063  0.30829243  0.34223111     0.82600
N22         N  0.20002287  0.33071018  0.34078459    -0.78100
C23         C  0.22362795  0.37666476  0.34175475     0.82700
N24         N  0.20634678  0.40069770  0.34417405    -0.79800
C25         C  0.14590275  0.08102440  0.02566721     0.76400
Tb26       Tb  0.47526132  0.03533670  0.05038359     1.80700
O27         O  0.13321594  0.10075186  0.04369088    -0.51700
O28         O  0.11543426  0.53009238  0.08113615    -0.59100
C29         C  0.07129803  0.12603493  0.07104211     0.92200
O30         O  0.46798913  0.09588093  0.05081822    -0.58600
Tb31       Tb  0.07074201  0.03319946  0.04867482     1.78100
O32         O  0.41331685  0.47167460  0.05498247    -0.59100
O33         O  0.01420785  0.46605981  0.01933216    -0.77900
O34         O  0.08381533  0.10268112  0.07828606    -0.77300
O35         O  0.05206573  0.04349104  0.50251921    -0.62500
C36         C  0.47858316  0.44350690  0.02681610     0.91800
O37         O  0.00826526  0.05389828  0.09926097    -0.74500
C38         C  0.40164832  0.99196811  0.07550021     0.75200
C39         C  0.10182113  0.48825538  0.07026424     0.76200
O40         O  0.12070361  0.03774190  0.01839873    -0.59700
O41         O  0.07254522  0.46914670  0.04927083    -0.51700
O42         O  0.98592230  0.01987805  0.99981992    -0.77700
O43         O  0.03638698  0.01444146  0.09166118    -0.61700
C44         C  0.02065935  0.03174092  0.10869589     0.90000
C45         C  0.01937784  0.03192737  0.48754034     0.91200
C46         C  0.44309338  0.07761483  0.02680447     0.75600
O47         O  0.42924667  0.03455812  0.08408724    -0.51100
O48         O  0.43730883  0.54107208  0.01304443    -0.52200
O49         O  0.46455758  0.46330004  0.04347315    -0.65100
O50         O  0.03760047  0.10691504  0.05449824    -0.66200
C51         C  0.13437199  0.06141529  0.27112137     0.76400
Tb52       Tb  0.46455370  0.01566858  0.29368647     1.80700
O53         O  0.12416391  0.08218090  0.29088164    -0.51700
O54         O  0.11011109  0.51573440  0.32575187    -0.59100
C55         C  0.05880938  0.10771119  0.31451126     0.92200
O56         O  0.45653503  0.07640990  0.29683793    -0.58600
Tb57       Tb  0.06126220  0.01657101  0.29643043     1.78100
O58         O  0.39766037  0.45179815  0.29105793    -0.59100
O59         O  0.00523687  0.44783511  0.26673813    -0.77900
O60         O  0.07114739  0.08537604  0.32381428    -0.77300
O61         O  0.04276257  0.02606878  0.25013109    -0.62500
C62         C  0.47033382  0.42542982  0.27532113     0.91800
O63         O  0.99305280  0.03581229  0.34448865    -0.74500
C64         C  0.38888556  0.96874048  0.31465739     0.75200
C65         C  0.09123893  0.47245370  0.32161522     0.76200
O66         O  0.10798752  0.01840882  0.26368441    -0.59700
O67         O  0.05690520  0.45137719  0.30597349    -0.51700
O68         O  0.97632733  0.99619568  0.24431607    -0.77700
O69         O  0.03316659  0.01028524  0.34265627    -0.61700
C70         C  0.01303580  0.02382468  0.35721026     0.90000
C71         C  0.01006650  0.01183428  0.23382121     0.91200
C72         C  0.43208988  0.06013710  0.27277980     0.75600
O73         O  0.41851275  0.00827477  0.32848221    -0.51100
O74         O  0.42455847  0.52225882  0.25876527    -0.52200
O75         O  0.45802240  0.44604012  0.29334162    -0.65100
O76         O  0.02631274  0.08745274  0.29615633    -0.66200
C77         C  0.01851628  0.03103030  0.45430001    -0.05600
C78         C  0.48424188  0.52481274  0.43810990    -0.33000
C79         C  0.98255760  0.52340361  0.40677057     0.36300
C80         C  0.01449723  0.02705167  0.39063829    -0.05900
C81         C  0.04753331  0.03191913  0.40650711    -0.32900
C82         C  0.04990826  0.03419458  0.43794278     0.36200
H83         H  0.45992181  0.52297270  0.44999032     0.16500
O84         O  0.44953611  0.51811863  0.39194231    -0.60400
H85         H  0.07189204  0.03406598  0.39450567     0.16600
O86         O  0.08243811  0.03785524  0.45207325    -0.60500
H87         H  0.10441347  0.07140197  0.45702553     0.43500
H88         H  0.45586178  0.54979199  0.39522071     0.43500
C89         C  0.01715522  0.02588740  0.14057069    -0.05600
C90         C  0.04350584  0.01819196  0.15480820    -0.33000
C91         C  0.04093948  0.01242651  0.18488725     0.36300
C92         C  0.01169684  0.01441989  0.20136408    -0.05900
C93         C  0.48476406  0.02106372  0.18685442    -0.32900
C94         C  0.48730165  0.02677210  0.15676136     0.36200
H95         H  0.06648573  0.01700708  0.14268199     0.16500
O96         O  0.06716211  0.00481796  0.19787649    -0.60400
H97         H  0.46106971  0.52071857  0.19815205     0.16600
O98         O  0.45918717  0.53042569  0.14240503    -0.60500
H99         H  0.43556819  0.49810956  0.13422095     0.43500
H100        H  0.05188733  0.97073384  0.19489503     0.43500
C101        C  0.08384766  0.15889069  0.32435364    -0.05600
C102        C  0.12611573  0.18293414  0.33084245    -0.33000
C103        C  0.15105784  0.23135551  0.33761832     0.36300
C104        C  0.13381390  0.25702742  0.33827835    -0.05900
C105        C  0.09124337  0.23278323  0.33338222    -0.32900
C106        C  0.06642687  0.18435741  0.32664912     0.36200
H107        H  0.14018517  0.16416540  0.32979042     0.16500
O108        O  0.19225535  0.25300843  0.34370239    -0.60400
H109        H  0.07693628  0.25126851  0.33419399     0.16600
O110        O  0.02513154  0.16242585  0.32249361    -0.60500
H111        H  0.01617219  0.15504226  0.34245925     0.43500
H112        H  0.20134156  0.24819993  0.32363713     0.43500
C113        C  0.26685181  0.39920284  0.33701493    -0.05600
C114        C  0.29487715  0.44671960  0.34932947    -0.33000
C115        C  0.33570657  0.96972790  0.34407751     0.36300
C116        C  0.34807171  0.44469021  0.32430299    -0.05900
C117        C  0.32037109  0.39706026  0.31253581    -0.32900
C118        C  0.28014381  0.37426581  0.31874491     0.36200
H119        H  0.28612555  0.96687750  0.36478171     0.16500
O120        O  0.36198132  0.01645739  0.35573722    -0.60400
H121        H  0.32965280  0.37749658  0.29785092     0.16600
O122        O  0.25379334  0.32798142  0.30570633    -0.60500
H123        H  0.24179774  0.32649837  0.28577103     0.43500
H124        H  0.37413951  0.01948966  0.37608313     0.43500
C125        C  0.14604364  0.40401341  0.34406740    -0.05600
C126        C  0.10436557  0.37843327  0.33331741    -0.33000
C127        C  0.08571039  0.40035457  0.32750155     0.36300
C128        C  0.10864398  0.44893314  0.33220023    -0.05900
C129        C  0.14967319  0.47484668  0.34493638    -0.32900
C130        C  0.16843135  0.45287552  0.35080585     0.36200
H131        H  0.08621154  0.34095949  0.32813793     0.16500
O132        O  0.04532213  0.37362196  0.31594490    -0.60400
H133        H  0.16828658  0.01291473  0.34919697     0.16600
O134        O  0.20857002  0.47954839  0.36316925    -0.60500
H135        H  0.22460065  0.99084999  0.34585597     0.43500
H136        H  0.03046930  0.36595838  0.33397980     0.43500
C137        C  0.14711940  0.27536290  0.09282855    -0.05600
C138        C  0.10451907  0.25110851  0.09015146    -0.33000
C139        C  0.07970651  0.20283456  0.08445854     0.36300
C140        C  0.09706218  0.17725661  0.08105944    -0.05900
C141        C  0.13955546  0.20129684  0.08546817    -0.32900
C142        C  0.16455398  0.24976994  0.09098588     0.36200
H143        H  0.09000530  0.26944548  0.09193134     0.16500
O144        O  0.03838216  0.18108673  0.08201398    -0.60400
H145        H  0.15359728  0.18244468  0.08343269     0.16600
O146        O  0.20590109  0.27143119  0.09409411    -0.60500
H147        H  0.21282211  0.26922900  0.07287368     0.43500
H148        H  0.03126666  0.17679544  0.10285680     0.43500
C149        C  0.28008009  0.42239947  0.09674230    -0.05600
C150        C  0.29614385  0.39706843  0.08502600    -0.33000
C151        C  0.33649629  0.41941134  0.07913951     0.36300
C152        C  0.36181828  0.46808666  0.08473664    -0.05900
C153        C  0.34668827  0.99471180  0.10023637    -0.32900
C154        C  0.30626637  0.47124485  0.10438555     0.36200
H155        H  0.27701869  0.35959018  0.07921694     0.16500
O156        O  0.35038447  0.39307961  0.06694441    -0.60400
H157        H  0.36591483  0.03215967  0.10470170     0.16600
O158        O  0.29253065  0.49755628  0.11707556    -0.60500
H159        H  0.29484476  0.00063950  0.14160374     0.43500
H160        H  0.35938348  0.38656340  0.08477018     0.43500
C161        C  0.11922030  0.46430668  0.07981725    -0.05600
C162        C  0.09864104  0.41632122  0.06876542    -0.33000
C163        C  0.11587370  0.39303066  0.07476544     0.36300
C164        C  0.15461412  0.41773576  0.09207992    -0.05900
C165        C  0.17471360  0.46556509  0.10388970    -0.32900
C166        C  0.15729864  0.48882053  0.09801130     0.36200
H167        H  0.06935244  0.39676343  0.05474518     0.16500
O168        O  0.09509674  0.34637381  0.06255461    -0.60400
H169        H  0.20436526  0.48520159  0.11738590     0.16600
O170        O  0.17822835  0.53563359  0.10963175    -0.60500
H171        H  0.19629249  0.55001186  0.09420689     0.43500
H172        H  0.10405712  0.34362512  0.04209484     0.43500
C173        C  0.41396739  0.08382644  0.26387770    -0.05600
C174        C  0.43140620  0.13019518  0.27864003    -0.33000
C175        C  0.41380640  0.15327823  0.27327002     0.36300
C176        C  0.37803215  0.13035217  0.25247253    -0.05900
C177        C  0.36036212  0.08385042  0.23755443    -0.32900
C178        C  0.37826920  0.06068899  0.24290206     0.36200
H179        H  0.45849961  0.14862010  0.29510007     0.16500
O180        O  0.43104869  0.19782310  0.28958332    -0.60400
H181        H  0.33257668  0.06539981  0.22178898     0.16600
O182        O  0.35942258  0.51507660  0.22959862    -0.60500
H183        H  0.36965925  0.51530781  0.20942026     0.43500
H184        H  0.41643720  0.19489967  0.30780132     0.43500
C185        C  0.44348079  0.37405136  0.26556129    -0.05600
C186        C  0.40274851  0.35141882  0.27093918    -0.33000
C187        C  0.37665378  0.30325621  0.26437250     0.36300
C188        C  0.39100944  0.27587052  0.25261139    -0.05900
C189        C  0.43152100  0.29835305  0.24628907    -0.32900
C190        C  0.45754100  0.34691997  0.25230139     0.36200
H191        H  0.39081039  0.37108766  0.28076626     0.16500
O192        O  0.33772097  0.28368764  0.27126605    -0.60400
H193        H  0.44323373  0.27826125  0.23679103     0.16600
O194        O  0.49652910  0.36726592  0.24521519    -0.60500
H195        H  0.51192051  0.36688380  0.26237752     0.43500
H196        H  0.32305685  0.28572255  0.25442733     0.43500
C197        C  0.25550126  0.13190575  0.24661415    -0.05600
C198        C  0.22875000  0.08361492  0.23638718    -0.33000
C199        C  0.18816068  0.06024802  0.24219716     0.36300
C200        C  0.17408194  0.08503775  0.25935762    -0.05900
C201        C  0.19981387  0.13337752  0.26757910    -0.32900
C202        C  0.23995707  0.15681388  0.26122968     0.36200
H203        H  0.23957680  0.06373511  0.22452590     0.16500
O204        O  0.16329791  0.01301783  0.23240235    -0.60400
H205        H  0.18934121  0.15323165  0.28014509     0.16600
O206        O  0.26409100  0.20398570  0.27098189    -0.60500
H207        H  0.27413513  0.21002015  0.29274906     0.43500
H208        H  0.14816514  0.00733012  0.21265519     0.43500
C209        C  0.39199121  0.14864142  0.00404522    -0.05600
C210        C  0.37236543  0.10163352  0.49173790    -0.33000
C211        C  0.38999380  0.07848464  0.49751172     0.36300
C212        C  0.42607047  0.10080316  0.01590596    -0.05900
C213        C  0.44933087  0.14917623  0.02325004    -0.32900
C214        C  0.43296599  0.17314890  0.01715123     0.36200
H215        H  0.34254633  0.08197118  0.47850057     0.16500
O216        O  0.36212430  0.52851771  0.49418219    -0.60400
H217        H  0.48026443  0.16870545  0.03454184     0.16600
O218        O  0.45666044  0.22047725  0.02615214    -0.60500
H219        H  0.47652437  0.23097975  0.01116798     0.43500
H220        H  0.36612871  0.51927642  0.47292335     0.43500
C221        C  0.45275234  0.39227524  0.01703428    -0.05600
C222        C  0.47070400  0.36768370  0.01165850    -0.33000
C223        C  0.44694070  0.31916295  0.00588604     0.36300
C224        C  0.40420711  0.29419870  0.00580896    -0.05900
C225        C  0.38631522  0.31902016  0.00955522    -0.32900
C226        C  0.41001966  0.36724925  0.01444290     0.36200
H227        H  0.50342713  0.38606550  0.01265995     0.16500
O228        O  0.46587916  0.29670079  0.99986772    -0.60400
H229        H  0.35366522  0.30113543  0.00876551     0.16600
O230        O  0.39087318  0.38949588  0.01617845    -0.60500
H231        H  0.38661181  0.39144417  0.99486930     0.43500
H232        H  0.48419867  0.30650065  0.01884228     0.43500
C233        C  0.26899405  0.14993920  0.00383886    -0.05600
C234        C  0.25370948  0.17589073  0.01639097    -0.33000
C235        C  0.21317315  0.15408893  0.02220327     0.36300
C236        C  0.18692298  0.10538801  0.01559266    -0.05900
C237        C  0.20132159  0.07949757  0.00112368    -0.32900
C238        C  0.24188406  0.10121681  0.99540362     0.36200
H239        H  0.27357942  0.21332029  0.02281476     0.16500
O240        O  0.20004254  0.18084061  0.03531747    -0.60400
H241        H  0.18149808  0.04203374  0.99522439     0.16600
O242        O  0.25457048  0.07323931  0.48184912    -0.60500
H243        H  0.25945969  0.06183295  0.49878635     0.43500
H244        H  0.18902355  0.18605202  0.01787603     0.43500
C245        C  0.37223635  0.17297795  0.49979087     0.80100
N246        N  0.33130671  0.15023886  0.49941845    -0.78200
C247        C  0.31306790  0.17307000  0.49952748     0.82600
N248        N  0.33646569  0.21919172  0.50024340    -0.78100
C249        C  0.37742507  0.24229409  0.50024863     0.82700
N250        N  0.39486592  0.21882621  0.50021096    -0.79800
C251        C  0.35840093  0.15447886  0.74818479     0.80100
N252        N  0.31723982  0.13178517  0.74580949    -0.78200
C253        C  0.29961960  0.15511736  0.74480846     0.82600
N254        N  0.32364266  0.20127439  0.74607306    -0.78100
C255        C  0.36470695  0.22442347  0.74823297     0.82700
N256        N  0.38184002  0.20074850  0.74943554    -0.79800
C257        C  0.17506467  0.39550019  0.59841655     0.80100
N258        N  0.21629727  0.42004897  0.60054586    -0.78200
C259        C  0.23574931  0.39878281  0.60157640     0.82600
N260        N  0.21341143  0.35254618  0.60028699    -0.78100
C261        C  0.17227120  0.32756629  0.59834712     0.82700
N262        N  0.15342547  0.34942022  0.59726723    -0.79800
C263        C  0.16620906  0.37979068  0.84655506     0.80100
N264        N  0.14297255  0.33345975  0.84536045    -0.78200
C265        C  0.15991298  0.30902693  0.84333598     0.82600
N266        N  0.20036543  0.33136116  0.84185653    -0.78100
C267        C  0.22401255  0.37731180  0.84278403     0.82700
N268        N  0.20679218  0.40141129  0.84516448    -0.79800
C269        C  0.14650540  0.08164277  0.52525036     0.76400
Tb270      Tb  0.47670526  0.03684678  0.55010482     1.80700
O271        O  0.13491913  0.10149215  0.54439132    -0.51700
O272        O  0.11356405  0.52879080  0.58223684    -0.59100
C273        C  0.07262105  0.12711178  0.57116111     0.92200
O274        O  0.46820460  0.09674870  0.55151115    -0.58600
Tb275      Tb  0.07170457  0.03435247  0.54851119     1.78100
O276        O  0.41126204  0.47120766  0.55532671    -0.59100
O277        O  0.01334118  0.46536381  0.51903649    -0.77900
O278        O  0.08497421  0.10366462  0.57847490    -0.77300
O279        O  0.04996354  0.03994151  0.00218503    -0.62500
C280        C  0.47759818  0.44258095  0.52636785     0.91800
O281        O  0.00930316  0.05525873  0.59914556    -0.74500
C282        C  0.40251955  0.99205717  0.57429671     0.75200
C283        C  0.10026036  0.48703784  0.57139858     0.76200
O284        O  0.12042092  0.03861957  0.51702970    -0.59700
O285        O  0.07164825  0.46800768  0.54985185    -0.51700
O286        O  0.98719859  0.02041339  0.49969522    -0.77700
O287        O  0.03782138  0.01617578  0.59176757    -0.61700
C288        C  0.02188839  0.03333276  0.60868687     0.90000
C289        C  0.01765368  0.02975676  0.98743278     0.91200
C290        C  0.44488504  0.07976967  0.52672938     0.75600
O291        O  0.42920189  0.03497449  0.58252507    -0.51100
O292        O  0.43400085  0.53787128  0.51395560    -0.52200
O293        O  0.46374318  0.46209801  0.54355058    -0.65100
O294        O  0.03926166  0.10811433  0.55419925    -0.66200
C295        C  0.13429998  0.06163815  0.77137653     0.76400
Tb296      Tb  0.46479235  0.01597183  0.79398602     1.80700
O297        O  0.12391429  0.08247171  0.79091962    -0.51700
O298        O  0.11015281  0.51592666  0.82590631    -0.59100
C299        C  0.05901101  0.10824702  0.81509609     0.92200
O300        O  0.45620283  0.07636995  0.79779004    -0.58600
Tb301      Tb  0.06114438  0.01672634  0.79661001     1.78100
O302        O  0.39717273  0.45196245  0.79080459    -0.59100
O303        O  0.00520336  0.44747244  0.76703041    -0.77900
O304        O  0.07136068  0.08575909  0.82417448    -0.77300
O305        O  0.04283421  0.02572978  0.75007188    -0.62500
C306        C  0.47025659  0.42516069  0.77553675     0.91800
O307        O  0.99341539  0.03598616  0.84471686    -0.74500
C308        C  0.38900754  0.96851325  0.81475388     0.75200
C309        C  0.09147842  0.47266981  0.82174585     0.76200
O310        O  0.10810803  0.01857153  0.76417799    -0.59700
O311        O  0.05726854  0.45140146  0.80586704    -0.51700
O312        O  0.97693704  0.99831470  0.74435140    -0.77700
O313        O  0.03226485  0.00885458  0.84250699    -0.61700
C314        C  0.01253389  0.02282898  0.85721914     0.90000
C315        C  0.01056475  0.01289502  0.73382058     0.91200
C316        C  0.43189353  0.06030225  0.77367509     0.75600
O317        O  0.41844143  0.00817809  0.82857921    -0.51100
O318        O  0.42433129  0.52163668  0.75814691    -0.52200
O319        O  0.45794217  0.44584873  0.79348610    -0.65100
O320        O  0.02642076  0.08807564  0.79686473    -0.66200
C321        C  0.01674009  0.02844172  0.95413041    -0.05600
C322        C  0.48542596  0.52625773  0.93829087    -0.33000
C323        C  0.98330630  0.52442758  0.90690854     0.36300
C324        C  0.01339620  0.02512194  0.89053940    -0.05900
C325        C  0.04575239  0.02867079  0.90637910    -0.32900
C326        C  0.04778073  0.03057337  0.93776610     0.36200
H327        H  0.46084124  0.52364792  0.95017602     0.16500
O328        O  0.44983615  0.51811984  0.89210355    -0.60400
H329        H  0.06991618  0.03020852  0.89441242     0.16600
O330        O  0.07970166  0.03304678  0.95186447    -0.60500
H331        H  0.10213314  0.06642113  0.95705543     0.43500
H332        H  0.45531705  0.54942094  0.89545742     0.43500
C333        C  0.01837458  0.02760131  0.64057496    -0.05600
C334        C  0.04570525  0.02173237  0.65526915    -0.33000
C335        C  0.04300575  0.01582391  0.68532166     0.36300
C336        C  0.01259503  0.01583666  0.70135306    -0.05900
C337        C  0.48482645  0.02083604  0.68636196    -0.32900
C338        C  0.48749162  0.02663858  0.65627644     0.36200
H339        H  0.06953627  0.02205537  0.64350088     0.16500
O340        O  0.07030667  0.01009146  0.69871185    -0.60400
H341        H  0.46194286  0.52249330  0.69906864     0.16600
O342        O  0.45995678  0.53242831  0.64339397    -0.60500
H343        H  0.43527859  0.50065341  0.63576031     0.43500
H344        H  0.05679853  0.97613741  0.69473947     0.43500
C345        C  0.08405413  0.15950861  0.82509475    -0.05600
C346        C  0.12624276  0.18359508  0.83238007    -0.33000
C347        C  0.15119533  0.23205486  0.83931835     0.36300
C348        C  0.13406674  0.25773702  0.83930988    -0.05900
C349        C  0.09156294  0.23348565  0.83358955    -0.32900
C350        C  0.06672892  0.18504720  0.82670846     0.36200
H351        H  0.14026718  0.16483814  0.83184977     0.16500
O352        O  0.19228505  0.25375204  0.84625613    -0.60400
H353        H  0.07733148  0.25198049  0.83382729     0.16600
O354        O  0.02549205  0.16317270  0.82167555    -0.60500
H355        H  0.01590480  0.15690292  0.84169409     0.43500
H356        H  0.20216661  0.24964958  0.82644381     0.43500
C357        C  0.26714252  0.39970444  0.83783398    -0.05600
C358        C  0.29538499  0.44711753  0.85034033    -0.33000
C359        C  0.33531503  0.96946257  0.84341650     0.36300
C360        C  0.34805910  0.44505200  0.82446384    -0.05900
C361        C  0.32014682  0.39750193  0.81253031    -0.32900
C362        C  0.28007455  0.37476880  0.81908169     0.36200
H363        H  0.28536279  0.96658881  0.86343927     0.16500
O364        O  0.36136181  0.01628594  0.85482417    -0.60400
H365        H  0.32914469  0.37795135  0.79747330     0.16600
O366        O  0.25350329  0.32855933  0.80591787    -0.60500
H367        H  0.24111196  0.32733313  0.78625811     0.43500
H368        H  0.37330966  0.01971519  0.87537135     0.43500
C369        C  0.14650276  0.40479298  0.84493141    -0.05600
C370        C  0.10474353  0.37912806  0.83441491    -0.33000
C371        C  0.08603031  0.40089922  0.82837719     0.36300
C372        C  0.10898030  0.44940695  0.83260607    -0.05900
C373        C  0.15009335  0.47546654  0.84516745    -0.32900
C374        C  0.16891787  0.45364849  0.85125433     0.36200
H375        H  0.08654634  0.34166810  0.82958565     0.16500
O376        O  0.04554248  0.37407046  0.81709382    -0.60400
H377        H  0.16779644  0.01234215  0.84933009     0.16600
O378        O  0.20914723  0.48046323  0.86339833    -0.60500
H379        H  0.22418122  0.99030025  0.84581108     0.43500
H380        H  0.03094078  0.36646973  0.83524823     0.43500
C381        C  0.14762787  0.27633711  0.59451687    -0.05600
C382        C  0.10500780  0.25175800  0.59156863    -0.33000
C383        C  0.08046757  0.20347356  0.58527522     0.36300
C384        C  0.09812802  0.17823052  0.58158424    -0.05900
C385        C  0.14063384  0.20252451  0.58613775    -0.32900
C386        C  0.16537142  0.25103431  0.59222229     0.36200
H387        H  0.09026908  0.26985954  0.59359700     0.16500
O388        O  0.03909800  0.18137799  0.58252833    -0.60400
H389        H  0.15488025  0.18387778  0.58375207     0.16600
O390        O  0.20675608  0.27301086  0.59534048    -0.60500
H391        H  0.21381104  0.27195878  0.57412419     0.43500
H392        H  0.03166891  0.17628520  0.60319241     0.43500
C393        C  0.28009297  0.42384595  0.59960342    -0.05600
C394        C  0.29594904  0.39822157  0.58802232    -0.33000
C395        C  0.33603805  0.42014609  0.58161321     0.36300
C396        C  0.36141918  0.46873340  0.58664266    -0.05900
C397        C  0.34678056  0.99367235  0.59831779    -0.32900
C398        C  0.30638822  0.47268260  0.60675016     0.36200
H399        H  0.27680550  0.36075145  0.58260261     0.16500
O400        O  0.34958784  0.39345368  0.56941849    -0.60400
H401        H  0.36589053  0.03114931  0.60318980     0.16600
O402        O  0.29286628  0.49930163  0.61924527    -0.60500
H403        H  0.29474511  0.99882805  0.63944803     0.43500
H404        H  0.35878077  0.38715306  0.58726279     0.43500
C405        C  0.11749023  0.46321646  0.58149046    -0.05600
C406        C  0.09818609  0.41564425  0.56937841    -0.33000
C407        C  0.11587258  0.39289314  0.57554065     0.36300
C408        C  0.15377538  0.41774373  0.59410712    -0.05900
C409        C  0.17240449  0.46498192  0.60712449    -0.32900
C410        C  0.15446144  0.48766178  0.60115020     0.36200
H411        H  0.06968752  0.39608985  0.55432164     0.16500
O412        O  0.09648378  0.34672597  0.56222908    -0.60400
H413        H  0.20127843  0.48458949  0.62170178     0.16600
O414        O  0.17375727  0.53387370  0.61422184    -0.60500
H415        H  0.19383872  0.55020584  0.60038845     0.43500
H416        H  0.10732620  0.34568773  0.54240492     0.43500
C417        C  0.41367096  0.08393186  0.76491194    -0.05600
C418        C  0.43110356  0.13031248  0.77963506    -0.33000
C419        C  0.41363245  0.15344776  0.77405018     0.36300
C420        C  0.37788813  0.13045784  0.75320534    -0.05900
C421        C  0.36017037  0.08390403  0.73841798    -0.32900
C422        C  0.37802171  0.06075760  0.74389303     0.36200
H423        H  0.45816207  0.14875081  0.79612781     0.16500
O424        O  0.43103358  0.19814777  0.79011693    -0.60400
H425        H  0.33241867  0.06542021  0.72261153     0.16600
O426        O  0.35952238  0.51486342  0.72860586    -0.60500
H427        H  0.36915158  0.51502894  0.70819673     0.43500
H428        H  0.41668805  0.19553850  0.80846040     0.43500
C429        C  0.44334695  0.37383712  0.76566611    -0.05600
C430        C  0.40245705  0.35125049  0.77057750    -0.33000
C431        C  0.37628989  0.30308989  0.76379713     0.36300
C432        C  0.39078971  0.27570344  0.75243573    -0.05900
C433        C  0.43144205  0.29817174  0.74648274    -0.32900
C434        C  0.45750041  0.34672031  0.75260471     0.36200
H435        H  0.39044300  0.37095265  0.78014570     0.16500
O436        O  0.33709714  0.28351955  0.77004969    -0.60400
H437        H  0.44324759  0.27808693  0.73721740     0.16600
O438        O  0.49662716  0.36707197  0.74583041    -0.60500
H439        H  0.51168941  0.36623220  0.76299120     0.43500
H440        H  0.32290925  0.28556402  0.75287822     0.43500
C441        C  0.25537150  0.13190468  0.74677071    -0.05600
C442        C  0.22860359  0.08360956  0.73664808    -0.33000
C443        C  0.18801342  0.06033966  0.74243935     0.36300
C444        C  0.17399017  0.08521362  0.75957621    -0.05900
C445        C  0.19973572  0.13355616  0.76768210    -0.32900
C446        C  0.23985220  0.15690913  0.76126360     0.36200
H447        H  0.23940192  0.06366457  0.72484432     0.16500
O448        O  0.16305792  0.01312475  0.73258300    -0.60400
H449        H  0.18928940  0.15347759  0.78018636     0.16600
O450        O  0.26398037  0.20410852  0.77080744    -0.60500
H451        H  0.27424535  0.21037851  0.79255245     0.43500
H452        H  0.14803514  0.00755637  0.71281237     0.43500
C453        C  0.39261013  0.14955069  0.50345831    -0.05600
C454        C  0.36916427  0.09997830  0.99549469    -0.33000
C455        C  0.38609149  0.07605772  0.00103249     0.36300
C456        C  0.42779403  0.10310932  0.51600430    -0.05900
C457        C  0.44843455  0.15100965  0.52685069    -0.32900
C458        C  0.43153762  0.17434012  0.52046810     0.36200
H459        H  0.33778515  0.08031696  0.98519357     0.16500
O460        O  0.36869667  0.53145726  0.98684719    -0.60400
H461        H  0.47761270  0.17055349  0.54102038     0.16600
O462        O  0.45216671  0.22089025  0.53296567    -0.60500
H463        H  0.47548256  0.23573142  0.52115516     0.43500
H464        H  0.37740487  0.52713799  0.96650160     0.43500
C465        C  0.45161987  0.39145181  0.51590005    -0.05600
C466        C  0.46944996  0.36691979  0.50874874    -0.33000
C467        C  0.44573565  0.31837681  0.50238809     0.36300
C468        C  0.40322702  0.29338556  0.50339136    -0.05900
C469        C  0.38534263  0.31813489  0.50878294    -0.32900
C470        C  0.40895076  0.36639612  0.51439563     0.36200
H471        H  0.50207617  0.38534071  0.50889382     0.16500
O472        O  0.46443649  0.29588039  0.49480498    -0.60400
H473        H  0.35280995  0.30019120  0.50896471     0.16600
O474        O  0.38975788  0.38864052  0.51815966    -0.60500
H475        H  0.38405561  0.39101355  0.49730045     0.43500
H476        H  0.48352764  0.30523470  0.51317337     0.43500
C477        C  0.26887379  0.14924531  0.50232484    -0.05600
C478        C  0.25366585  0.17553403  0.51431995    -0.33000
C479        C  0.21337170  0.15409451  0.52063018     0.36300
C480        C  0.18728163  0.10546931  0.51493010    -0.05900
C481        C  0.20155575  0.07914587  0.50108783    -0.32900
C482        C  0.24192482  0.10049422  0.49501322     0.36200
H483        H  0.27342669  0.21299256  0.51993667     0.16500
O484        O  0.20028262  0.18113157  0.53321776    -0.60400
H485        H  0.18182649  0.04168289  0.49603968     0.16600
O486        O  0.25454943  0.07436545  0.98141971    -0.60500
H487        H  0.25872474  0.06151807  0.99774453     0.43500
H488        H  0.18816266  0.18472292  0.51554698     0.43500
C489        C  0.37223860  0.67301982  0.99988998     0.80100
N490        N  0.33130831  0.65029299  0.99949694    -0.78200
C491        C  0.31308510  0.67314073  0.99960984     0.82600
N492        N  0.33650229  0.71927189  0.00035250    -0.78100
C493        C  0.37746571  0.74236285  0.00037870     0.82700
N494        N  0.39488674  0.71887430  0.00033386    -0.79800
C495        C  0.35841078  0.65447066  0.24809381     0.80100
N496        N  0.31725028  0.63176923  0.24572737    -0.78200
C497        C  0.29962265  0.65509577  0.24474195     0.82600
N498        N  0.32363738  0.70125509  0.24601257    -0.78100
C499        C  0.36470164  0.72441313  0.24816452     0.82700
N500        N  0.38184309  0.70074343  0.24935372    -0.79800
C501        C  0.17506350  0.89553235  0.09837348     0.80100
N502        N  0.21629526  0.92006873  0.10050334    -0.78200
C503        C  0.23573640  0.89879306  0.10153879     0.82600
N504        N  0.21338842  0.85255726  0.10025294    -0.78100
C505        C  0.17224746  0.82758723  0.09831257     0.82700
N506        N  0.15341201  0.84945198  0.09722949    -0.79800
C507        C  0.16626024  0.87981202  0.34657660     0.80100
N508        N  0.14301931  0.83348306  0.34538989    -0.78200
C509        C  0.15995588  0.80904632  0.34337415     0.82600
N510        N  0.20040686  0.83137205  0.34189381    -0.78100
C511        C  0.22405633  0.87731916  0.34281348     0.82700
N512        N  0.20684160  0.90142354  0.34518598    -0.79800
C513        C  0.14649019  0.58168474  0.02525729     0.76400
Tb514      Tb  0.47664640  0.53679600  0.05010216     1.80700
O515        O  0.13489966  0.60152062  0.04440467    -0.51700
O516        O  0.11360168  0.02886798  0.08222671    -0.59100
C517        C  0.07258037  0.62713004  0.07115070     0.92200
O518        O  0.46822140  0.59674391  0.05149343    -0.58600
Tb519      Tb  0.07166742  0.53437256  0.04849030     1.78100
O520        O  0.41126326  0.97125182  0.05529061    -0.59100
O521        O  0.01336019  0.96537670  0.01907199    -0.77900
O522        O  0.08494075  0.60368608  0.07845904    -0.77300
O523        O  0.04989189  0.53966654  0.50210014    -0.62500
C524        C  0.47768943  0.94265502  0.02649084     0.91800
O525        O  0.00929260  0.55528716  0.09913265    -0.74500
C526        C  0.40245033  0.49201006  0.07428930     0.75200
C527        C  0.10028263  0.98710928  0.07139098     0.76200
O528        O  0.12040151  0.53866487  0.01701835    -0.59700
O529        O  0.07163722  0.96806669  0.04986936    -0.51700
O530        O  0.98712886  0.52033876  0.99967789    -0.77700
O531        O  0.03779374  0.51618894  0.09175076    -0.61700
C532        C  0.02188172  0.53336722  0.10867598     0.90000
C533        C  0.01764637  0.52969369  0.48737755     0.91200
C534        C  0.44483770  0.57973171  0.02674320     0.75600
O535        O  0.42914839  0.53491986  0.08253257    -0.51100
O536        O  0.43415644  0.03800258  0.01395702    -0.52200
O537        O  0.46385993  0.96218179  0.04369694    -0.65100
O538        O  0.03921559  0.60812784  0.05419580    -0.66200
C539        C  0.13431793  0.56161426  0.27134430     0.76400
Tb540      Tb  0.46481462  0.51601838  0.29397898     1.80700
O541        O  0.12396809  0.58245002  0.29092148    -0.51700
O542        O  0.11015437  0.01593529  0.32595408    -0.59100
C543        C  0.05906636  0.60827283  0.31508636     0.92200
O544        O  0.45614916  0.57636194  0.29780101    -0.58600
Tb545      Tb  0.06116701  0.51673324  0.29658018     1.78100
O546        O  0.39720781  0.95198085  0.29083286    -0.59100
O547        O  0.00519393  0.94743879  0.26705256    -0.77900
O548        O  0.07141236  0.58577555  0.32415560    -0.77300
O549        O  0.04289931  0.52584525  0.25007249    -0.62500
C550        C  0.47023146  0.92515842  0.27552750     0.91800
O551        O  0.99349147  0.53607357  0.34468609    -0.74500
C552        C  0.38901310  0.46849089  0.31471542     0.75200
C553        C  0.09151231  0.97267966  0.32177515     0.76200
O554        O  0.10809184  0.51855635  0.26411153    -0.59700
O555        O  0.05731286  0.95139161  0.30587789    -0.51700
O556        O  0.97698206  0.49833145  0.24433624    -0.77700
O557        O  0.03223365  0.50880468  0.34245226    -0.61700
C558        C  0.01255289  0.52284149  0.35717651     0.90000
C559        C  0.01062212  0.51297335  0.23381531     0.91200
C560        C  0.43189821  0.56032340  0.27365497     0.75600
O561        O  0.41842415  0.50816693  0.32854531    -0.51100
O562        O  0.42437772  0.02174822  0.25820131    -0.52200
O563        O  0.45789587  0.94583877  0.29346080    -0.65100
O564        O  0.02647989  0.58811274  0.29685139    -0.66200
C565        C  0.01673139  0.52837727  0.45407582    -0.05600
C566        C  0.48549989  0.02639529  0.43831486    -0.33000
C567        C  0.98343198  0.02463039  0.40695849     0.36300
C568        C  0.01340606  0.52510996  0.39049306    -0.05900
C569        C  0.04567115  0.52845431  0.40630503    -0.32900
C570        C  0.04768644  0.53032067  0.43768640     0.36200
H571        H  0.46095879  0.02388003  0.45021718     0.16500
O572        O  0.44995630  0.01839931  0.39215109    -0.60400
H573        H  0.06977222  0.52985238  0.39432086     0.16600
O574        O  0.07950420  0.53257117  0.45175371    -0.60500
H575        H  0.10204439  0.56590170  0.45693342     0.43500
H576        H  0.45553141  0.04974485  0.39551168     0.43500
C577        C  0.01839573  0.52766785  0.14057037    -0.05600
C578        C  0.04574349  0.52182074  0.15526140    -0.33000
C579        C  0.04306609  0.51593526  0.18531864     0.36300
C580        C  0.01265480  0.51593813  0.20135417    -0.05900
C581        C  0.48473338  0.52070869  0.18633754    -0.32900
C582        C  0.48738307  0.52649364  0.15624887     0.36200
H583        H  0.06956975  0.52214227  0.14348652     0.16500
O584        O  0.07038679  0.51023139  0.19870858    -0.60400
H585        H  0.46207030  0.02270567  0.19911836     0.16600
O586        O  0.46015802  0.03274542  0.14346830    -0.60500
H587        H  0.43543559  0.00100582  0.13582744     0.43500
H588        H  0.05687860  0.47627965  0.19476752     0.43500
C589        C  0.08410411  0.65953236  0.32510374    -0.05600
C590        C  0.12628531  0.68362066  0.33244397    -0.33000
C591        C  0.15123354  0.73208126  0.33940116     0.36300
C592        C  0.13410774  0.75775895  0.33934977    -0.05900
C593        C  0.09160925  0.73350570  0.33357926    -0.32900
C594        C  0.06677912  0.68506843  0.32668422     0.36200
H595        H  0.14030837  0.66486601  0.33194382     0.16500
O596        O  0.19231471  0.75378464  0.34640247    -0.60400
H597        H  0.07738039  0.75199866  0.33378501     0.16600
O598        O  0.02554564  0.66319288  0.32160175    -0.60500
H599        H  0.01590979  0.65686930  0.34160036     0.43500
H600        H  0.20225313  0.74971304  0.32661243     0.43500
C601        C  0.26718327  0.89970402  0.33786562    -0.05600
C602        C  0.29542549  0.94711454  0.35037575    -0.33000
C603        C  0.33529147  0.46940359  0.34335183     0.36300
C604        C  0.34809696  0.94504829  0.32449930    -0.05900
C605        C  0.32018449  0.89749945  0.31256078    -0.32900
C606        C  0.28011169  0.87476719  0.31911042     0.36200
H607        H  0.28531966  0.46651333  0.36334669     0.16500
O608        O  0.36133184  0.51622267  0.35477904    -0.60400
H609        H  0.32918200  0.87795126  0.29750071     0.16600
O610        O  0.25353622  0.82855992  0.30594144    -0.60500
H611        H  0.24113928  0.82734178  0.28628728     0.43500
H612        H  0.37327097  0.51963235  0.37532428     0.43500
C613        C  0.14656238  0.90482370  0.34495115    -0.05600
C614        C  0.10479175  0.87916296  0.33447686    -0.33000
C615        C  0.08607604  0.90093300  0.32844416     0.36300
C616        C  0.10903347  0.94943512  0.33263405    -0.05900
C617        C  0.15016313  0.97549655  0.34515192    -0.32900
C618        C  0.16899125  0.95367958  0.35123391     0.36200
H619        H  0.08658342  0.84170441  0.32967972     0.16500
O620        O  0.04557216  0.87410605  0.31720962    -0.60400
H621        H  0.16777579  0.51229538  0.34934963     0.16600
O622        O  0.20923801  0.98049628  0.36333224    -0.60500
H623        H  0.22417635  0.49029538  0.34586332     0.43500
H624        H  0.03101412  0.86656316  0.33538896     0.43500
C625        C  0.14759581  0.77635705  0.09448733    -0.05600
C626        C  0.10497659  0.75178509  0.09159249    -0.33000
C627        C  0.08043113  0.70349714  0.08530149     0.36300
C628        C  0.09808798  0.67824936  0.08156966    -0.05900
C629        C  0.14059374  0.70253822  0.08607038    -0.32900
C630        C  0.16533360  0.75104521  0.09214116     0.36200
H631        H  0.09024407  0.76989503  0.09365870     0.16500
O632        O  0.03906206  0.68140281  0.08259425    -0.60400
H633        H  0.15483704  0.68388776  0.08364806     0.16600
O634        O  0.20671580  0.77300933  0.09518488    -0.60500
H635        H  0.21370440  0.77194821  0.07394978     0.43500
H636        H  0.03167338  0.67635960  0.10327343     0.43500
C637        C  0.28007910  0.92384679  0.09956585    -0.05600
C638        C  0.29591646  0.89821974  0.08794171    -0.33000
C639        C  0.33600915  0.92014529  0.08154172     0.36300
C640        C  0.36141416  0.96873755  0.08662019    -0.05900
C641        C  0.34670681  0.49364784  0.09828241    -0.32900
C642        C  0.30639290  0.97268238  0.10675908     0.36200
H643        H  0.27675622  0.86074950  0.08248430     0.16500
O644        O  0.34954238  0.89344982  0.06931492    -0.60400
H645        H  0.36581767  0.53112398  0.10313736     0.16600
O646        O  0.29288603  0.99929904  0.11929760    -0.60500
H647        H  0.29472127  0.49893124  0.13937486     0.43500
H648        H  0.35877122  0.88715744  0.08714495     0.43500
C649        C  0.11752749  0.96329230  0.08145978    -0.05600
C650        C  0.09818105  0.91570465  0.06938468    -0.33000
C651        C  0.11585709  0.89294107  0.07554127     0.36300
C652        C  0.15379271  0.91779559  0.09406346    -0.05900
C653        C  0.17247496  0.96505793  0.10703338    -0.32900
C654        C  0.15454434  0.98775087  0.10106369     0.36200
H655        H  0.06965102  0.89614365  0.05436600     0.16500
O656        O  0.09641864  0.84675307  0.06227205    -0.60400
H657        H  0.20137977  0.98467369  0.12157110     0.16600
O658        O  0.17389636  0.03398703  0.11408429    -0.60500
H659        H  0.19389150  0.05025258  0.10018214     0.43500
H660        H  0.10720060  0.84564972  0.04242669     0.43500
C661        C  0.41367680  0.58394606  0.26487603    -0.05600
C662        C  0.43105433  0.63029961  0.27963814    -0.33000
C663        C  0.41358793  0.65342956  0.27403003     0.36300
C664        C  0.37790377  0.63046173  0.25312396    -0.05900
C665        C  0.36023787  0.58393423  0.23829785    -0.32900
C666        C  0.37808571  0.56079285  0.24379613     0.36200
H667        H  0.45806366  0.64871921  0.29617954     0.16500
O668        O  0.43092725  0.69809801  0.29013545    -0.60400
H669        H  0.33252828  0.56546708  0.22244585     0.16600
O670        O  0.35953388  0.01495853  0.22870842    -0.60500
H671        H  0.36917771  0.01513594  0.20830437     0.43500
H672        H  0.41650187  0.69542265  0.30843902     0.43500
C673        C  0.44332515  0.87383465  0.26564277    -0.05600
C674        C  0.40242440  0.85123506  0.27052643    -0.33000
C675        C  0.37626205  0.80307237  0.26373059     0.36300
C676        C  0.39077658  0.77569677  0.25237906    -0.05900
C677        C  0.43143918  0.79817987  0.24645136    -0.32900
C678        C  0.45749433  0.84672899  0.25259302     0.36200
H679        H  0.39039855  0.87092807  0.28008532     0.16500
O680        O  0.33705761  0.78348930  0.26995631    -0.60400
H681        H  0.44325809  0.77810604  0.23719503     0.16600
O682        O  0.49663830  0.86709169  0.24585742    -0.60500
H683        H  0.51167962  0.86627809  0.26304738     0.43500
H684        H  0.32287777  0.78549752  0.25275966     0.43500
C685        C  0.25537918  0.63187701  0.24672253    -0.05600
C686        C  0.22861037  0.58358182  0.23659608    -0.33000
C687        C  0.18802374  0.56030909  0.24239754     0.36300
C688        C  0.17400530  0.58518262  0.25954205    -0.05900
C689        C  0.19975448  0.63352372  0.26765816    -0.32900
C690        C  0.23986838  0.65687768  0.26123839     0.36200
H691        H  0.23940581  0.56363945  0.22478239     0.16500
O692        O  0.16306980  0.51309314  0.23254703    -0.60400
H693        H  0.18931342  0.65344371  0.28017359     0.16600
O694        O  0.26400431  0.70407348  0.27080778    -0.60500
H695        H  0.27428500  0.71031329  0.29254376     0.43500
H696        H  0.14804492  0.50751768  0.21277570     0.43500
C697        C  0.39258894  0.64956368  0.00354050    -0.05600
C698        C  0.36905469  0.59990874  0.49552240    -0.33000
C699        C  0.38595921  0.57597175  0.50107340     0.36300
C700        C  0.42774749  0.60308003  0.01603829    -0.05900
C701        C  0.44842984  0.65098844  0.02686201    -0.32900
C702        C  0.43154314  0.67433909  0.02050628     0.36200
H703        H  0.33763332  0.58025122  0.48532211     0.16500
O704        O  0.36882853  0.03149132  0.48672254    -0.60400
H705        H  0.47763378  0.67052420  0.04099618     0.16600
O706        O  0.45221279  0.72089759  0.03298944    -0.60500
H707        H  0.47553183  0.73570414  0.02117678     0.43500
H708        H  0.37760657  0.02723060  0.46639829     0.43500
C709        C  0.45171190  0.89152410  0.01604438    -0.05600
C710        C  0.46953611  0.86698089  0.00892611    -0.33000
C711        C  0.44580821  0.81843639  0.00256481     0.36300
C712        C  0.40329252  0.79345787  0.00353961    -0.05900
C713        C  0.38542087  0.81822138  0.00890766    -0.32900
C714        C  0.40904267  0.86648131  0.01451331     0.36200
H715        H  0.50216451  0.88539393  0.00909030     0.16500
O716        O  0.46450088  0.79592641  0.99500032    -0.60400
H717        H  0.35288542  0.80028913  0.00906535     0.16600
O718        O  0.38986167  0.88873853  0.01822724    -0.60500
H719        H  0.38416216  0.89106377  0.99735189     0.43500
H720        H  0.48359867  0.80530013  0.01336922     0.43500
C721        C  0.26888198  0.64931166  0.00237781    -0.05600
C722        C  0.25365775  0.67559310  0.01434629    -0.33000
C723        C  0.21335538  0.65414526  0.02064012     0.36300
C724        C  0.18727421  0.60551982  0.01494947    -0.05900
C725        C  0.20156347  0.57920325  0.00112837    -0.32900
C726        C  0.24193889  0.60055836  0.99507006     0.36200
H727        H  0.27341152  0.71305200  0.01995640     0.16500
O728        O  0.20024831  0.68117437  0.03320172    -0.60400
H729        H  0.18184123  0.54174006  0.99608676     0.16600
O730        O  0.25449080  0.57440761  0.48117807    -0.60500
H731        H  0.25863593  0.56143070  0.49742939     0.43500
H732        H  0.18816378  0.68477910  0.01551654     0.43500
C733        C  0.37217375  0.67307122  0.50134666     0.80100
N734        N  0.33126829  0.65070203  0.50094871    -0.78200
C735        C  0.31334220  0.67390457  0.50147734     0.82600
N736        N  0.33706323  0.72019534  0.50269237    -0.78100
C737        C  0.37805302  0.74304450  0.50277055     0.82700
N738        N  0.39512106  0.71908872  0.50225019    -0.79800
C739        C  0.35851005  0.65435199  0.74755310     0.80100
N740        N  0.31735282  0.63168476  0.74525669    -0.78200
C741        C  0.29976303  0.65511367  0.74455610     0.82600
N742        N  0.32381549  0.70134411  0.74605135    -0.78100
C743        C  0.36487850  0.72447109  0.74813752     0.82700
N744        N  0.38196792  0.70068832  0.74902133    -0.79800
C745        C  0.17549443  0.89484243  0.59609137     0.80100
N746        N  0.21662671  0.91888145  0.59780554    -0.78200
C747        C  0.23580468  0.89730642  0.59860276     0.82600
N748        N  0.21326584  0.85109551  0.59746655    -0.78100
C749        C  0.17214358  0.82654264  0.59601988     0.82700
N750        N  0.15358672  0.84879766  0.59518566    -0.79800
C751        C  0.16577706  0.87906828  0.84563394     0.80100
N752        N  0.14257415  0.83272415  0.84438256    -0.78200
C753        C  0.15957953  0.80835957  0.84233166     0.82600
N754        N  0.20004460  0.83077701  0.84089509    -0.78100
C755        C  0.22365379  0.87673322  0.84186602     0.82700
N756        N  0.20637325  0.90076626  0.84427513    -0.79800
C757        C  0.14591433  0.58099358  0.52565177     0.76400
Tb758      Tb  0.47520982  0.53529371  0.55034311     1.80700
O759        O  0.13320259  0.60070745  0.54365890    -0.51700
O760        O  0.11552281  0.03013319  0.58114821    -0.59100
C761        C  0.07132187  0.62600789  0.57087833     0.92200
O762        O  0.46801132  0.59588000  0.55070584    -0.58600
Tb763      Tb  0.07074975  0.53313925  0.54864505     1.78100
O764        O  0.41339761  0.97172046  0.55500218    -0.59100
O765        O  0.01422582  0.96603978  0.51937070    -0.77900
O766        O  0.08382060  0.60266658  0.57818083    -0.77300
O767        O  0.05203881  0.54358921  0.00252466    -0.62500
C768        C  0.47857342  0.94350912  0.52682704     0.91800
O769        O  0.00837554  0.55396347  0.59922493    -0.74500
C770        C  0.40163926  0.49195328  0.57550537     0.75200
C771        C  0.10189957  0.98828758  0.57030323     0.76200
O772        O  0.12073878  0.53770645  0.51839422    -0.59700
O773        O  0.07259389  0.96914646  0.54933129    -0.51700
O774        O  0.98597600  0.52002825  0.49979021    -0.77700
O775        O  0.03638606  0.51439066  0.59162433    -0.61700
C776        C  0.02071727  0.53176073  0.60866392     0.90000
C777        C  0.01932909  0.53194283  0.98753168     0.91200
C778        C  0.44302408  0.57754158  0.52674052     0.75600
O779        O  0.42921254  0.53455984  0.58404258    -0.51100
O780        O  0.43742048  0.04114798  0.51301356    -0.52200
O781        O  0.46454749  0.96331893  0.54346387    -0.65100
O782        O  0.03763897  0.60685921  0.55430688    -0.66200
C783        C  0.13439330  0.56143269  0.77109129     0.76400
Tb784      Tb  0.46453222  0.51562542  0.79365637     1.80700
O785        O  0.12420259  0.58219953  0.79086722    -0.51700
O786        O  0.11009920  0.01574881  0.82578024    -0.59100
C787        C  0.05881204  0.60776228  0.81451421     0.92200
O788        O  0.45657089  0.57639275  0.79672461    -0.58600
Tb789      Tb  0.06127878  0.51660940  0.79640274     1.78100
O790        O  0.39762276  0.95180191  0.79108512    -0.59100
O791        O  0.00523034  0.94781424  0.76676401    -0.77900
O792        O  0.07116395  0.58541968  0.82378665    -0.77300
O793        O  0.04279622  0.52613119  0.75010907    -0.62500
C794        C  0.47030415  0.92535605  0.77526451     0.91800
O795        O  0.99298439  0.53576858  0.84446480    -0.74500
C796        C  0.38885015  0.46873737  0.81462137     0.75200
C797        C  0.09122908  0.97247057  0.82165940     0.76200
O798        O  0.10799011  0.51843213  0.76364106    -0.59700
O799        O  0.05688843  0.95138153  0.80602518    -0.51700
O800        O  0.97635660  0.49623648  0.74428321    -0.77700
O801        O  0.03326430  0.51045693  0.84266501    -0.61700
C802        C  0.01304404  0.52388212  0.85719997     0.90000
C803        C  0.01010092  0.51188660  0.73379476     0.91200
C804        C  0.43208830  0.56006771  0.77268125     0.75600
O805        O  0.41848151  0.50827336  0.82843953    -0.51100
O806        O  0.42448977  0.02219689  0.75880623    -0.52200
O807        O  0.45792221  0.94592699  0.79324168    -0.65100
O808        O  0.02630238  0.58751442  0.79617557    -0.66200
C809        C  0.01847301  0.53105443  0.95428978    -0.05600
C810        C  0.48421603  0.02469771  0.93812808    -0.33000
C811        C  0.98247016  0.02324602  0.90679397     0.36300
C812        C  0.01448481  0.52709564  0.89062717    -0.05900
C813        C  0.04761194  0.53219052  0.90653258    -0.32900
C814        C  0.04997189  0.53445877  0.93796819     0.36200
H815        H  0.45989778  0.02285517  0.95001249     0.16500
O816        O  0.44946792  0.01792802  0.89195628    -0.60400
H817        H  0.07205510  0.53452589  0.89455954     0.16600
O818        O  0.08260644  0.53836111  0.95213452    -0.60500
H819        H  0.10444140  0.57195642  0.95713894     0.43500
H820        H  0.45576138  0.04958784  0.89524331     0.43500
C821        C  0.01721482  0.52592928  0.64054384    -0.05600
C822        C  0.04350787  0.51814400  0.65477026    -0.33000
C823        C  0.04093514  0.51238870  0.68485201     0.36300
C824        C  0.01173957  0.51447334  0.70133929    -0.05900
C825        C  0.48467337  0.52092112  0.68681459    -0.32900
C826        C  0.48717327  0.52658035  0.65670990     0.36200
H827        H  0.06644755  0.51688081  0.64263365     0.16500
O828        O  0.06710423  0.50469997  0.69783416    -0.60400
H829        H  0.46124157  0.02099407  0.69820625     0.16600
O830        O  0.45940753  0.03078105  0.64247706    -0.60500
H831        H  0.43570812  0.99851718  0.63428343     0.43500
H832        H  0.05177204  0.47061260  0.69486633     0.43500
C833        C  0.08384912  0.65894541  0.82438060    -0.05600
C834        C  0.12611340  0.68298774  0.83091329    -0.33000
C835        C  0.15105824  0.73141139  0.83771862     0.36300
C836        C  0.13382325  0.75708944  0.83836126    -0.05900
C837        C  0.09125470  0.73284704  0.83342180    -0.32900
C838        C  0.06643416  0.68441890  0.82666101     0.36200
H839        H  0.14018000  0.66421717  0.82987449     0.16500
O840        O  0.19224980  0.75306107  0.84384916    -0.60400
H841        H  0.07695295  0.75133644  0.83421843     0.16600
O842        O  0.02514070  0.66249244  0.82246023    -0.60500
H843        H  0.01614242  0.65511950  0.84242016     0.43500
H844        H  0.20137900  0.74829247  0.82379668     0.43500
C845        C  0.26687501  0.89926568  0.83711571    -0.05600
C846        C  0.29490885  0.94678625  0.84941751    -0.33000
C847        C  0.33566779  0.46973190  0.84404119     0.36300
C848        C  0.34807726  0.94473497  0.82436103    -0.05900
C849        C  0.32036870  0.89710384  0.81260682    -0.32900
C850        C  0.28015075  0.87431937  0.81883523     0.36200
H851        H  0.28608480  0.46688083  0.86474548     0.16500
O852        O  0.36194443  0.51646074  0.85570211    -0.60400
H853        H  0.32963682  0.87753028  0.79791595     0.16600
O854        O  0.25379073  0.82803486  0.80580154    -0.60500
H855        H  0.24177420  0.82655144  0.78587566     0.43500
H856        H  0.37408558  0.51949099  0.87605470     0.43500
C857        C  0.14606690  0.90407963  0.84414405    -0.05600
C858        C  0.10437660  0.87849001  0.83342855    -0.33000
C859        C  0.08571202  0.90039639  0.82759891     0.36300
C860        C  0.10864684  0.94896909  0.83225385    -0.05900
C861        C  0.14969076  0.97489618  0.84495442    -0.32900
C862        C  0.16846010  0.95294117  0.85083205     0.36200
H863        H  0.08621769  0.84101728  0.82828633     0.16500
O864        O  0.04531258  0.87365344  0.81607158    -0.60400
H865        H  0.16820893  0.51288765  0.84924516     0.16600
O866        O  0.20861753  0.97963129  0.86314867    -0.60500
H867        H  0.22454962  0.49087149  0.84594792     0.43500
H868        H  0.03048672  0.86599764  0.83411934     0.43500
C869        C  0.14716249  0.77535133  0.59271505    -0.05600
C870        C  0.10455706  0.75109355  0.58988543    -0.33000
C871        C  0.07973521  0.70281929  0.58415396     0.36300
C872        C  0.09708380  0.67723615  0.58087053    -0.05900
C873        C  0.13957418  0.70127656  0.58541294    -0.32900
C874        C  0.16458484  0.74975482  0.59096863     0.36200
H875        H  0.09004610  0.76942855  0.59157937     0.16500
O876        O  0.03840888  0.68107957  0.58157064    -0.60400
H877        H  0.15361092  0.68242327  0.58347032     0.16600
O878        O  0.20593333  0.77142136  0.59423038    -0.60500
H879        H  0.21298528  0.76920374  0.57305105     0.43500
H880        H  0.03117317  0.67681867  0.60239514     0.43500
C881        C  0.28015704  0.92241218  0.59675974    -0.05600
C882        C  0.29622036  0.89709061  0.58502083    -0.33000
C883        C  0.33657283  0.91944498  0.57913638     0.36300
C884        C  0.36189097  0.96812202  0.58474780    -0.05900
C885        C  0.34667879  0.49470961  0.60022002    -0.32900
C886        C  0.30634420  0.97125729  0.60443069     0.36200
H887        H  0.27709600  0.85961237  0.57919483     0.16500
O888        O  0.35046521  0.89312224  0.56693169    -0.60400
H889        H  0.36588854  0.53215507  0.60464583     0.16600
O890        O  0.29261449  0.99755745  0.61716130    -0.60500
H891        H  0.29483360  0.50069598  0.64155890     0.43500
H892        H  0.35948603  0.88661961  0.58475351     0.43500
C893        C  0.11931399  0.96435777  0.57985993    -0.05600
C894        C  0.09869085  0.91635705  0.56887077    -0.33000
C895        C  0.11592347  0.89306536  0.57486354     0.36300
C896        C  0.15470891  0.91778356  0.59211277    -0.05900
C897        C  0.17485450  0.96563415  0.60386410    -0.32900
C898        C  0.15744144  0.98889276  0.59798710     0.36200
H899        H  0.06936433  0.89678420  0.55490206     0.16500
O900        O  0.09509562  0.84638918  0.56270745    -0.60400
H901        H  0.20454188  0.98528525  0.61730833     0.16600
O902        O  0.17842197  0.03572723  0.60953684    -0.60500
H903        H  0.19642395  0.05002133  0.59406091     0.43500
H904        H  0.10398066  0.84356385  0.54222530     0.43500
C905        C  0.41396955  0.58374869  0.76375569    -0.05600
C906        C  0.43141933  0.63012684  0.77849844    -0.33000
C907        C  0.41381405  0.65320301  0.77312845     0.36300
C908        C  0.37802503  0.63026376  0.75234593    -0.05900
C909        C  0.36034801  0.58375476  0.73744021    -0.32900
C910        C  0.37826041  0.56059824  0.74278948     0.36200
H911        H  0.45852307  0.64856423  0.79494890     0.16500
O912        O  0.43106420  0.69775455  0.78943145    -0.60400
H913        H  0.33255327  0.56529501  0.72168418     0.16600
O914        O  0.35931047  0.01501959  0.72973245    -0.60500
H915        H  0.36949358  0.01519248  0.70953541     0.43500
H916        H  0.41648354  0.69484268  0.80766589     0.43500
C917        C  0.44346826  0.87398046  0.76546776    -0.05600
C918        C  0.40267439  0.85133005  0.77068039    -0.33000
C919        C  0.37658614  0.80316593  0.76409001     0.36300
C920        C  0.39100913  0.77579313  0.75247899    -0.05900
C921        C  0.43158473  0.79829910  0.74630595    -0.32900
C922        C  0.45759841  0.84686804  0.75233465     0.36200
H923        H  0.39067916  0.87098786  0.78039029     0.16500
O924        O  0.33757679  0.78358654  0.77080333    -0.60400
H925        H  0.44335546  0.77822635  0.73691615     0.16600
O926        O  0.49664969  0.86723589  0.74538945    -0.60500
H927        H  0.51193583  0.86683375  0.76261549     0.43500
H928        H  0.32300406  0.78546177  0.75381057     0.43500
C929        C  0.25551404  0.63186737  0.74656167    -0.05600
C930        C  0.22870997  0.58359674  0.73625470    -0.33000
C931        C  0.18812301  0.56025606  0.74207415     0.36300
C932        C  0.17410450  0.58504891  0.75932627    -0.05900
C933        C  0.19989834  0.63337984  0.76763837    -0.32900
C934        C  0.24003728  0.65679091  0.76128430     0.36200
H935        H  0.23949129  0.56371316  0.72431606     0.16500
O936        O  0.16319839  0.51304329  0.73218607    -0.60400
H937        H  0.18947829  0.65324090  0.78028145     0.16600
O938        O  0.26423708  0.70394556  0.77114523    -0.60500
H939        H  0.27444641  0.70984299  0.79284493     0.43500
H940        H  0.14806017  0.50748142  0.71247738     0.43500
C941        C  0.39195462  0.64858419  0.50394622    -0.05600
C942        C  0.37229826  0.60163433  0.99184545    -0.33000
C943        C  0.38991020  0.57846191  0.99759915     0.36300
C944        C  0.42599845  0.60071571  0.51582484    -0.05900
C945        C  0.44933304  0.64909039  0.52302779    -0.32900
C946        C  0.43298508  0.67307471  0.51691660     0.36200
H947        H  0.34245568  0.58198046  0.97864562     0.16500
O948        O  0.36232850  0.02860210  0.99399629    -0.60400
H949        H  0.48031601  0.66861622  0.53421959     0.16600
O950        O  0.45677236  0.72041423  0.52576769    -0.60500
H951        H  0.47643261  0.73074332  0.51063053     0.43500
H952        H  0.36650083  0.01953183  0.97275855     0.43500
C953        C  0.45274353  0.89227851  0.51706467    -0.05600
C954        C  0.47070244  0.86769395  0.51171522    -0.33000
C955        C  0.44694535  0.81917630  0.50594156     0.36300
C956        C  0.40420793  0.79420349  0.50583427    -0.05900
C957        C  0.38630978  0.81901934  0.50956903    -0.32900
C958        C  0.41001076  0.86724912  0.51445986     0.36200
H959        H  0.50342735  0.88607922  0.51273425     0.16500
O960        O  0.46589749  0.79672788  0.49995227    -0.60400
H961        H  0.35365744  0.80112949  0.50876101     0.16600
O962        O  0.39086237  0.88949248  0.51617828    -0.60500
H963        H  0.38653365  0.89134842  0.49485621     0.43500
H964        H  0.48415912  0.80648955  0.51895391     0.43500
C965        C  0.26899247  0.64994585  0.50380232    -0.05600
C966        C  0.25374169  0.67589058  0.51645284    -0.33000
C967        C  0.21321003  0.65408265  0.52227291     0.36300
C968        C  0.18693370  0.60538060  0.51557856    -0.05900
C969        C  0.20130161  0.57950607  0.50101581    -0.32900
C970        C  0.24185766  0.60123429  0.49527741     0.36200
H971        H  0.27363485  0.71331474  0.52294648     0.16500
O972        O  0.20011250  0.68082604  0.53548030    -0.60400
H973        H  0.18145588  0.54204525  0.49504594     0.16600
O974        O  0.25459725  0.57330599  0.98192919    -0.60500
H975        H  0.25948656  0.56191927  0.99887876     0.43500
H976        H  0.18908371  0.68611138  0.51808649     0.43500
C977        C  0.87224249  0.17310983  0.00142148     0.80100
N978        N  0.83133346  0.15071847  0.00101375    -0.78200
C979        C  0.81338670  0.17389639  0.00151301     0.82600
N980        N  0.83709343  0.22018288  0.00270546    -0.78100
C981        C  0.87808626  0.24304977  0.00279038     0.82700
N982        N  0.89517275  0.21911910  0.00230153    -0.79800
C983        C  0.85855922  0.15441923  0.24767422     0.80100
N984        N  0.81739922  0.13174360  0.24535898    -0.78200
C985        C  0.79979955  0.15516049  0.24464434     0.82600
N986        N  0.82384871  0.20139524  0.24614785    -0.78100
C987        C  0.86491471  0.22453003  0.24824991     0.82700
N988        N  0.88200913  0.20075441  0.24914038    -0.79800
C989        C  0.67538170  0.39483259  0.09598058     0.80100
N990        N  0.71651530  0.41887875  0.09770256    -0.78200
C991        C  0.73569691  0.39731100  0.09851422     0.82600
N992        N  0.71316021  0.35110462  0.09738886    -0.78100
C993        C  0.67203727  0.32654451  0.09593319     0.82700
N994        N  0.65347386  0.34878887  0.09508187    -0.79800
C995        C  0.66577207  0.37903904  0.34552073     0.80100
N996        N  0.64256712  0.33268477  0.34422970    -0.78200
C997        C  0.65957749  0.30832711  0.34218595     0.82600
N998        N  0.70005187  0.33076153  0.34079823    -0.78100
C999        C  0.72366544  0.37672903  0.34180795     0.82700
N1000       N  0.70637959  0.40075724  0.34420847    -0.79800
C1001       C  0.64591721  0.08100792  0.02562154     0.76400
Tb1002     Tb  0.97529681  0.03536749  0.05046128     1.80700
O1003       O  0.63324389  0.10073052  0.04366546    -0.51700
O1004       O  0.61542228  0.53012816  0.08106307    -0.59100
C1005       C  0.57125269  0.12602822  0.07089250     0.92200
O1006       O  0.96809425  0.09595690  0.05085134    -0.58600
Tb1007     Tb  0.57072191  0.03318786  0.04858599     1.78100
O1008       O  0.91338186  0.47169296  0.05510296    -0.59100
O1009       O  0.51419851  0.46605291  0.01925346    -0.77900
O1010       O  0.58378498  0.10269406  0.07814993    -0.77300
O1011       O  0.55208421  0.04364243  0.50245543    -0.62500
C1012       C  0.97859421  0.44351766  0.02689689     0.91800
O1013       O  0.50829786  0.05392872  0.09916993    -0.74500
C1014       C  0.90166207  0.99200399  0.07554880     0.75200
C1015       C  0.60180835  0.48829006  0.07019488     0.76200
O1016       O  0.62068779  0.03773284  0.01830974    -0.59700
O1017       O  0.57252938  0.46917186  0.04920252    -0.51700
O1018       O  0.48590243  0.01987281  0.99973848    -0.77700
O1019       O  0.53636688  0.01441965  0.09156793    -0.61700
C1020       C  0.52066417  0.03174676  0.10860624     0.90000
C1021       C  0.51936858  0.03197252  0.48745824     0.91200
C1022       C  0.94317327  0.07767106  0.02685074     0.75600
O1023       O  0.92923723  0.03460504  0.08411302    -0.51100
O1024       O  0.93738179  0.54111723  0.01310980    -0.52200
O1025       O  0.96457270  0.46331482  0.04355556    -0.65100
O1026       O  0.53754126  0.10688461  0.05436274    -0.66200
C1027       C  0.63436485  0.06139853  0.27106184     0.76400
Tb1028     Tb  0.96455494  0.01563765  0.29374944     1.80700
O1029       O  0.62411805  0.08216640  0.29078311    -0.51700
O1030       O  0.61006240  0.51571633  0.32572348    -0.59100
C1031       C  0.55882448  0.10771953  0.31435717     0.92200
O1032       O  0.95674679  0.07651052  0.29672843    -0.58600
Tb1033     Tb  0.56123077  0.01654180  0.29634957     1.78100
O1034       O  0.89766877  0.45186232  0.29113424    -0.59100
O1035       O  0.50519258  0.44783364  0.26668459    -0.77900
O1036       O  0.57115164  0.08539220  0.32368999    -0.77300
O1037       O  0.54268298  0.02586767  0.24999964    -0.62500
C1038       C  0.97035594  0.42541737  0.27534007     0.91800
O1039       O  0.49314308  0.03594477  0.34440994    -0.74500
C1040       C  0.88891159  0.96878174  0.31476133     0.75200
C1041       C  0.59120829  0.47243487  0.32156292     0.76200
O1042       O  0.60800179  0.01838500  0.26364727    -0.59700
O1043       O  0.55688909  0.45135355  0.30589776    -0.51700
O1044       O  0.47629997  0.99629281  0.24423327    -0.77700
O1045       O  0.53309036  0.01020026  0.34256197    -0.61700
C1046       C  0.51304345  0.02385598  0.35712580     0.90000
C1047       C  0.51001286  0.01177961  0.23371745     0.91200
C1048       C  0.93212603  0.06009013  0.27275665     0.75600
O1049       O  0.91854614  0.00832898  0.32856179    -0.51100
O1050       O  0.92448943  0.52217308  0.25883723    -0.52200
O1051       O  0.95800109  0.44600695  0.29333106    -0.65100
O1052       O  0.52632678  0.08743692  0.29599874    -0.66200
C1053       C  0.51851418  0.03108845  0.45421894    -0.05600
C1054       C  0.98430616  0.52483136  0.43818763    -0.33000
C1055       C  0.48250916  0.52339041  0.40669235     0.36300
C1056       C  0.51450349  0.02709702  0.39055486    -0.05900
C1057       C  0.54754654  0.03199007  0.40643088    -0.32900
C1058       C  0.54991905  0.03427612  0.43786856     0.36200
H1059       H  0.96003985  0.52310176  0.45008923     0.16500
O1060       O  0.94963239  0.51826281  0.39204997    -0.60400
H1061       H  0.57191163  0.03414915  0.39443251     0.16600
O1062       O  0.58245673  0.03796180  0.45200763    -0.60500
H1063       H  0.60442001  0.07151278  0.45696039     0.43500
H1064       H  0.95605279  0.54997759  0.39533202     0.43500
C1065       C  0.51714799  0.02588508  0.14048064    -0.05600
C1066       C  0.54338245  0.01799529  0.15468114    -0.33000
C1067       C  0.54079208  0.01220106  0.18475382     0.36300
C1068       C  0.51164535  0.01436481  0.20126200    -0.05900
C1069       C  0.98469897  0.02091987  0.18691696    -0.32900
C1070       C  0.98721475  0.02660110  0.15681679     0.36200
H1071       H  0.56628886  0.01667559  0.14253083     0.16500
O1072       O  0.56689812  0.00440074  0.19770701    -0.60400
H1073       H  0.96111142  0.52076860  0.19823723     0.16600
O1074       O  0.95922422  0.53046291  0.14248339    -0.60500
H1075       H  0.93559811  0.49814470  0.13431661     0.43500
H1076       H  0.55151265  0.97030477  0.19470803     0.43500
C1077       C  0.58386085  0.15890872  0.32418261    -0.05600
C1078       C  0.62611464  0.18296049  0.33082163    -0.33000
C1079       C  0.65105437  0.23138639  0.33762997     0.36300
C1080       C  0.63382250  0.25705362  0.33817555    -0.05900
C1081       C  0.59126296  0.23280245  0.33310658    -0.32900
C1082       C  0.56645028  0.18437715  0.32633513     0.36200
H1083       H  0.64017872  0.16419663  0.32987379     0.16500
O1084       O  0.69223479  0.25304999  0.34386964    -0.60400
H1085       H  0.57696277  0.25128317  0.33381258     0.16600
O1086       O  0.52516395  0.16244688  0.32200332    -0.60500
H1087       H  0.51607370  0.15522685  0.34197394     0.43500
H1088       H  0.70145752  0.24831542  0.32385518     0.43500
C1089       C  0.76690000  0.39927657  0.33710016    -0.05600
C1090       C  0.79492197  0.44679369  0.34942295    -0.33000
C1091       C  0.83573024  0.96977482  0.34417771     0.36300
C1092       C  0.84812519  0.44477239  0.32440792    -0.05900
C1093       C  0.82043123  0.39714307  0.31264067    -0.32900
C1094       C  0.78020217  0.37434507  0.31883771     0.36200
H1095       H  0.78612576  0.96691716  0.36484629     0.16500
O1096       O  0.86199072  0.01651176  0.35581621    -0.60400
H1097       H  0.82971815  0.37758238  0.29795864     0.16600
O1098       O  0.75385840  0.32806304  0.30578866    -0.60500
H1099       H  0.74187080  0.32658864  0.28585285     0.43500
H1100       H  0.87414703  0.01957476  0.37617219     0.43500
C1101       C  0.64605495  0.40404115  0.34402381    -0.05600
C1102       C  0.60437961  0.37844362  0.33325577    -0.33000
C1103       C  0.58571077  0.40034578  0.32742903     0.36300
C1104       C  0.60862479  0.44892468  0.33214460    -0.05900
C1105       C  0.64965143  0.47485438  0.34489094    -0.32900
C1106       C  0.66842626  0.45290203  0.35076271     0.36200
H1107       H  0.58623780  0.34097009  0.32807026     0.16500
O1108       O  0.54533157  0.37359602  0.31584251    -0.60400
H1109       H  0.66826123  0.01289930  0.34908862     0.16600
O1110       O  0.70856536  0.47959316  0.36312626    -0.60500
H1111       H  0.72459051  0.99083959  0.34573993     0.43500
H1112       H  0.53045319  0.36587209  0.33386035     0.43500
C1113       C  0.64707035  0.27536036  0.09265982    -0.05600
C1114       C  0.60446905  0.25110520  0.08996380    -0.33000
C1115       C  0.57965569  0.20283040  0.08426667     0.36300
C1116       C  0.59701229  0.17725305  0.08088506    -0.05900
C1117       C  0.63950502  0.20129464  0.08529912    -0.32900
C1118       C  0.66450344  0.24976645  0.09081656     0.36200
H1119       H  0.58995593  0.26944262  0.09173737     0.16500
O1120       O  0.53833103  0.18108260  0.08180745    -0.60400
H1121       H  0.65354765  0.18244417  0.08327358     0.16600
O1122       O  0.70585021  0.27142602  0.09392752    -0.60500
H1123       H  0.71277340  0.26922520  0.07270769     0.43500
H1124       H  0.53120676  0.17682691  0.10265365     0.43500
C1125       C  0.78005689  0.42242049  0.09669842    -0.05600
C1126       C  0.79614028  0.39709359  0.08502797    -0.33000
C1127       C  0.83651119  0.41943956  0.07918958     0.36300
C1128       C  0.86183097  0.46811427  0.08478294    -0.05900
C1129       C  0.84665035  0.99473260  0.10020080    -0.32900
C1130       C  0.80623841  0.47126671  0.10434112     0.36200
H1131       H  0.77702048  0.35961528  0.07922101     0.16500
O1132       O  0.85042066  0.39311080  0.06704299    -0.60400
H1133       H  0.86586513  0.03217987  0.10465275     0.16600
O1134       O  0.79248388  0.49757697  0.11698812    -0.60500
H1135       H  0.79467102  0.00060374  0.14147784     0.43500
H1136       H  0.85933748  0.38655309  0.08488811     0.43500
C1137       C  0.61920805  0.46434569  0.07974775    -0.05600
C1138       C  0.59862936  0.41636362  0.06868661    -0.33000
C1139       C  0.61586056  0.39307037  0.07467644     0.36300
C1140       C  0.65459661  0.41776784  0.09199568    -0.05900
C1141       C  0.67469707  0.46559555  0.10381620    -0.32900
C1142       C  0.65728507  0.48885597  0.09794286     0.36200
H1143       H  0.56934324  0.39681037  0.05466338     0.16500
O1144       O  0.59508712  0.34641870  0.06244819    -0.60400
H1145       H  0.70434688  0.48522637  0.11731452     0.16600
O1146       O  0.67821624  0.53566848  0.10956716    -0.60500
H1147       H  0.69626395  0.55004992  0.09413482     0.43500
H1148       H  0.60407700  0.34368942  0.04199814     0.43500
C1149       C  0.91400979  0.08377544  0.26383225    -0.05600
C1150       C  0.93162206  0.13024466  0.27842820    -0.33000
C1151       C  0.91402326  0.15333745  0.27307566     0.36300
C1152       C  0.87808023  0.13032312  0.25244859    -0.05900
C1153       C  0.86025383  0.08372665  0.23768351    -0.32900
C1154       C  0.87814870  0.06054990  0.24302452     0.36200
H1155       H  0.95885417  0.14874501  0.29475283     0.16500
O1156       O  0.93144277  0.19798818  0.28924960    -0.60400
H1157       H  0.83234579  0.06520625  0.22204983     0.16600
O1158       O  0.85927272  0.51496019  0.22978878    -0.60500
H1159       H  0.86939223  0.51503763  0.20957083     0.43500
H1160       H  0.91703944  0.19528277  0.30756939     0.43500
C1161       C  0.94351341  0.37403835  0.26556443    -0.05600
C1162       C  0.90274583  0.35139552  0.27084948    -0.33000
C1163       C  0.87665376  0.30323087  0.26427103     0.36300
C1164       C  0.89104585  0.27585129  0.25259373    -0.05900
C1165       C  0.93159551  0.29834747  0.24635850    -0.32900
C1166       C  0.95761309  0.34691614  0.25237941     0.36200
H1167       H  0.89077583  0.37105942  0.28060923     0.16500
O1168       O  0.83767932  0.28365559  0.27106765    -0.60400
H1169       H  0.94334143  0.27826605  0.23692336     0.16600
O1170       O  0.99663649  0.36727355  0.24537195    -0.60500
H1171       H  0.01196815  0.36687642  0.26256840     0.43500
H1172       H  0.82306981  0.28562945  0.25415582     0.43500
C1173       C  0.75553491  0.13188437  0.24661099    -0.05600
C1174       C  0.72876760  0.08360017  0.23635324    -0.33000
C1175       C  0.68816916  0.06023951  0.24214582     0.36300
C1176       C  0.67409585  0.08502597  0.25932189    -0.05900
C1177       C  0.69985140  0.13336314  0.26758159    -0.32900
C1178       C  0.74000258  0.15679364  0.26124868     0.36200
H1179       H  0.73958615  0.06372109  0.22447541     0.16500
O1180       O  0.66328605  0.01301664  0.23230861    -0.60400
H1181       H  0.68938945  0.15321802  0.28016410     0.16600
O1182       O  0.76415588  0.20395945  0.27104062    -0.60500
H1183       H  0.77429519  0.20994451  0.29277410     0.43500
H1184       H  0.64817544  0.00738254  0.21256507     0.43500
C1185       C  0.89205219  0.14866707  0.00405910    -0.05600
C1186       C  0.87244631  0.10172532  0.49186009    -0.33000
C1187       C  0.89007440  0.07857210  0.49762289     0.36300
C1188       C  0.92614829  0.10085354  0.01594349    -0.05900
C1189       C  0.94940139  0.14922692  0.02327904    -0.32900
C1190       C  0.93302869  0.17318717  0.01716673     0.36200
H1191       H  0.84266704  0.08208722  0.47856429     0.16500
O1192       O  0.86225151  0.52861568  0.49433511    -0.60400
H1193       H  0.98033478  0.16876572  0.03457350     0.16600
O1194       O  0.95671886  0.22051694  0.02615312    -0.60500
H1195       H  0.97656413  0.23100991  0.01115499     0.43500
H1196       H  0.86625882  0.51946118  0.47305855     0.43500
C1197       C  0.95276366  0.39228649  0.01711133    -0.05600
C1198       C  0.97071865  0.36770098  0.01170005    -0.33000
C1199       C  0.94696091  0.31917913  0.00590534     0.36300
C1200       C  0.90423049  0.29420735  0.00584594    -0.05900
C1201       C  0.88633385  0.31902364  0.00963246    -0.32900
C1202       C  0.91003195  0.36725466  0.01453821     0.36200
H1203       H  0.00344051  0.38608741  0.01268462     0.16500
O1204       O  0.96589900  0.29672230  0.99984026    -0.60400
H1205       H  0.85368492  0.30113317  0.00885828     0.16600
O1206       O  0.89087977  0.38949676  0.01630412    -0.60500
H1207       H  0.88656054  0.39141143  0.99499664     0.43500
H1208       H  0.98425551  0.30652546  0.01879295     0.43500
C1209       C  0.76902884  0.14992141  0.00382846    -0.05600
C1210       C  0.75374300  0.17587115  0.01638141    -0.33000
C1211       C  0.71320488  0.15406941  0.02218692     0.36300
C1212       C  0.68695081  0.10536864  0.01556794    -0.05900
C1213       C  0.70135258  0.07947863  0.00110346    -0.32900
C1214       C  0.74191866  0.10119932  0.99538922     0.36200
H1215       H  0.77361258  0.21330054  0.02280901     0.16500
O1216       O  0.70007374  0.18082211  0.03529739    -0.60400
H1217       H  0.68152701  0.04201505  0.99519993     0.16600
O1218       O  0.75462331  0.07333205  0.48187977    -0.60500
H1219       H  0.75946990  0.06188638  0.49881177     0.43500
H1220       H  0.68901241  0.18598618  0.01785443     0.43500
C1221       C  0.87228572  0.17305027  0.49997270     0.80100
N1222       N  0.83135191  0.15031214  0.49956018    -0.78200
C1223       C  0.81312497  0.17315292  0.49964974     0.82600
N1224       N  0.83653815  0.21928138  0.50038598    -0.78100
C1225       C  0.87750322  0.24238001  0.50042956     0.82700
N1226       N  0.89493121  0.21890287  0.50041108    -0.79800
C1227       C  0.85845379  0.15451520  0.74820692     0.80100
N1228       N  0.81729245  0.13181668  0.74582680    -0.78200
C1229       C  0.79966551  0.15514564  0.74484246     0.82600
N1230       N  0.82368598  0.20131153  0.74613325    -0.78100
C1231       C  0.86475172  0.22446630  0.74829657     0.82700
N1232       N  0.88188765  0.20078975  0.74947651    -0.79800
C1233       C  0.67505623  0.39550408  0.59824946     0.80100
N1234       N  0.71629102  0.42004955  0.60038395    -0.78200
C1235       C  0.73573734  0.39877718  0.60142233     0.82600
N1236       N  0.71339450  0.35254173  0.60013427    -0.78100
C1237       C  0.67225516  0.32756674  0.59818884     0.82700
N1238       N  0.65341483  0.34942503  0.59710422    -0.79800
C1239       C  0.66619926  0.37974612  0.84645790     0.80100
N1240       N  0.64296216  0.33341425  0.84525554    -0.78200
C1241       C  0.65990919  0.30899180  0.84326876     0.82600
N1242       N  0.70037100  0.33133606  0.84183366    -0.78100
C1243       C  0.72401985  0.37728963  0.84276934     0.82700
N1244       N  0.70679176  0.40137934  0.84511218    -0.79800
C1245       C  0.64650129  0.08168148  0.52520583     0.76400
Tb1246     Tb  0.97670918  0.03683228  0.55019986     1.80700
O1247       O  0.63494429  0.10148915  0.54441296    -0.51700
O1248       O  0.61349219  0.52876300  0.58212195    -0.59100
C1249       C  0.57260512  0.12711479  0.57104951     0.92200
O1250       O  0.96818876  0.09672777  0.55167464    -0.58600
Tb1251     Tb  0.57166479  0.03434753  0.54840784     1.78100
O1252       O  0.91128010  0.47127733  0.55523400    -0.59100
O1253       O  0.51325770  0.46529651  0.51891450    -0.77900
O1254       O  0.58494699  0.10366515  0.57837881    -0.77300
O1255       O  0.54994332  0.03992805  0.00209756    -0.62500
C1256       C  0.97770304  0.44265989  0.52652664     0.91800
O1257       O  0.50932815  0.05527835  0.59904676    -0.74500
C1258       C  0.90245747  0.99198055  0.57430506     0.75200
C1259       C  0.60017784  0.48700396  0.57129820     0.76200
O1260       O  0.62037169  0.03867943  0.51688998    -0.59700
O1261       O  0.57152640  0.46794795  0.54977910    -0.51700
O1262       O  0.48716013  0.02034357  0.49959868    -0.77700
O1263       O  0.53774290  0.01609058  0.59164062    -0.61700
C1264       C  0.52186778  0.03330400  0.60857953     0.90000
C1265       C  0.51763227  0.02974517  0.98734826     0.91200
C1266       C  0.94491344  0.07980679  0.52687450     0.75600
O1267       O  0.92915509  0.03488648  0.58259299    -0.51100
O1268       O  0.93426757  0.53811450  0.51403356    -0.52200
O1269       O  0.96387652  0.46218978  0.54373330    -0.65100
O1270       O  0.53925789  0.10811328  0.55407186    -0.66200
C1271       C  0.63430268  0.06159352  0.77132803     0.76400
Tb1272     Tb  0.96478938  0.01597560  0.79405801     1.80700
O1273       O  0.62385827  0.08243975  0.79080154    -0.51700
O1274       O  0.61011637  0.51586819  0.82581477    -0.59100
C1275       C  0.55903203  0.10820932  0.81499116     0.92200
O1276       O  0.95628120  0.07642656  0.79779263    -0.58600
Tb1277     Tb  0.56113086  0.01667301  0.79653853     1.78100
O1278       O  0.89721458  0.45199009  0.79088036    -0.59100
O1279       O  0.50515598  0.44742731  0.76695239    -0.77900
O1280       O  0.57136950  0.08572318  0.82408977    -0.77300
O1281       O  0.54278971  0.02552714  0.74994622    -0.62500
C1282       C  0.97030561  0.42520871  0.77561643     0.91800
O1283       O  0.49346403  0.03602671  0.84463613    -0.74500
C1284       C  0.88901814  0.96853530  0.81484054     0.75200
C1285       C  0.59144993  0.47261025  0.82163593     0.76200
O1286       O  0.60815736  0.01851372  0.76418245    -0.59700
O1287       O  0.55724152  0.45134742  0.80575682    -0.51700
O1288       O  0.47694953  0.99839268  0.74426792    -0.77700
O1289       O  0.53218717  0.00873342  0.84240987    -0.61700
C1290       C  0.51251556  0.02278698  0.85713071     0.90000
C1291       C  0.51055134  0.01283697  0.73371869     0.91200
C1292       C  0.93190973  0.06030195  0.77370704     0.75600
O1293       O  0.91845705  0.00819609  0.82866585    -0.51100
O1294       O  0.92423790  0.52156030  0.75823831    -0.52200
O1295       O  0.95799423  0.44590266  0.79356239    -0.65100
O1296       O  0.52645227  0.08802881  0.79674531    -0.66200
C1297       C  0.51671686  0.02842034  0.95404411    -0.05600
C1298       C  0.98536987  0.52615011  0.93835436    -0.33000
C1299       C  0.48335865  0.52451582  0.90684263     0.36300
C1300       C  0.51337210  0.02507751  0.89045001    -0.05900
C1301       C  0.54571166  0.02859496  0.90628836    -0.32900
C1302       C  0.54774083  0.03050886  0.93767687     0.36200
H1303       H  0.96075053  0.52345674  0.95022986     0.16500
O1304       O  0.94974987  0.51794942  0.89216049    -0.60400
H1305       H  0.56986254  0.03010133  0.89431932     0.16600
O1306       O  0.57964409  0.03294801  0.95177380    -0.60500
H1307       H  0.60209640  0.06631441  0.95695527     0.43500
H1308       H  0.95516423  0.54922030  0.89552386     0.43500
C1309       C  0.51836306  0.02757472  0.64047274    -0.05600
C1310       C  0.54558651  0.02150587  0.65512143    -0.33000
C1311       C  0.54288820  0.01559206  0.68517497     0.36300
C1312       C  0.51258283  0.01579125  0.70125163    -0.05900
C1313       C  0.98472713  0.02067075  0.68641455    -0.32900
C1314       C  0.98739065  0.02646013  0.65632605     0.36200
H1315       H  0.56933370  0.02167565  0.64331716     0.16500
O1316       O  0.57008623  0.00967222  0.69852188    -0.60400
H1317       H  0.96206930  0.52264532  0.69915393     0.16600
O1318       O  0.96013016  0.53261790  0.64348422    -0.60500
H1319       H  0.93545255  0.50084746  0.63583141     0.43500
H1320       H  0.55645746  0.97569743  0.69454527     0.43500
C1321       C  0.58406796  0.15947393  0.82498718    -0.05600
C1322       C  0.62624037  0.18357116  0.83239941    -0.33000
C1323       C  0.65118448  0.23203392  0.83935468     0.36300
C1324       C  0.63406304  0.25770278  0.83922953    -0.05900
C1325       C  0.59157217  0.23344169  0.83337703    -0.32900
C1326       C  0.56674756  0.18500614  0.82648328     0.36200
H1327       H  0.64026101  0.16482246  0.83196304     0.16500
O1328       O  0.69225521  0.25374890  0.84643274    -0.60400
H1329       H  0.57734514  0.25192737  0.83351988     0.16600
O1330       O  0.52552117  0.16312838  0.82132240    -0.60500
H1331       H  0.51582208  0.15682770  0.84130893     0.43500
H1332       H  0.70225782  0.24969224  0.82667218     0.43500
C1333       C  0.76716296  0.39969581  0.83785961    -0.05600
C1334       C  0.79538202  0.44711685  0.85035814    -0.33000
C1335       C  0.83533120  0.96947196  0.84351743     0.36300
C1336       C  0.84809199  0.44508324  0.82452238    -0.05900
C1337       C  0.82020772  0.39752268  0.81260710    -0.32900
C1338       C  0.78012982  0.37476861  0.81914411     0.36200
H1339       H  0.78536987  0.96658493  0.86353338     0.16500
O1340       O  0.86137837  0.01629206  0.85493809    -0.60400
H1341       H  0.82923061  0.37797939  0.79757252     0.16600
O1342       O  0.75358745  0.32854650  0.80600038    -0.60500
H1343       H  0.74122834  0.32728107  0.78631107     0.43500
H1344       H  0.87333906  0.01970598  0.87547587     0.43500
C1345       C  0.64649006  0.40473786  0.84480392    -0.05600
C1346       C  0.60474286  0.37906359  0.83424486    -0.33000
C1347       C  0.58602459  0.40082909  0.82820834     0.36300
C1348       C  0.60895805  0.44934192  0.83247732    -0.05900
C1349       C  0.65006105  0.47540624  0.84506606    -0.32900
C1350       C  0.66888976  0.45359318  0.85115488     0.36200
H1351       H  0.58655850  0.34160256  0.82938882     0.16500
O1352       O  0.54554787  0.37399183  0.81689266    -0.60400
H1353       H  0.66778292  0.01233767  0.84932867     0.16600
O1354       O  0.70910528  0.48041266  0.86333517    -0.60500
H1355       H  0.72418487  0.99031273  0.84583700     0.43500
H1356       H  0.53091734  0.36635090  0.83503064     0.43500
C1357       C  0.64760880  0.27633985  0.59436809    -0.05600
C1358       C  0.60498854  0.25176114  0.59139534    -0.33000
C1359       C  0.58044842  0.20347783  0.58511592     0.36300
C1360       C  0.59810921  0.17823479  0.58146565    -0.05900
C1361       C  0.64061392  0.20253014  0.58604456    -0.32900
C1362       C  0.66535179  0.25103892  0.59211148     0.36200
H1363       H  0.59024960  0.26986120  0.59339260     0.16500
O1364       O  0.53907847  0.18138318  0.58234068    -0.60400
H1365       H  0.65486041  0.18388449  0.58369056     0.16600
O1366       O  0.70673665  0.27301600  0.59524949    -0.60500
H1367       H  0.71380647  0.27194519  0.57403755     0.43500
H1368       H  0.53163107  0.17635025  0.60301071     0.43500
C1369       C  0.78008524  0.42383281  0.59947199    -0.05600
C1370       C  0.79593242  0.39820489  0.58787375    -0.33000
C1371       C  0.83603909  0.42013110  0.58150782     0.36300
C1372       C  0.86144581  0.46872183  0.58659505    -0.05900
C1373       C  0.84667537  0.99357168  0.59826474    -0.32900
C1374       C  0.80640141  0.47266751  0.60667628     0.36200
H1375       H  0.77677264  0.36073462  0.58241362     0.16500
O1376       O  0.84959057  0.39344128  0.56931333    -0.60400
H1377       H  0.86578943  0.03104935  0.60315364     0.16600
O1378       O  0.79288728  0.49928452  0.61919563    -0.60500
H1379       H  0.79467415  0.99877240  0.63936839     0.43500
H1380       H  0.85879220  0.38714995  0.58715823     0.43500
C1381       C  0.61744100  0.46320683  0.58137521    -0.05600
C1382       C  0.59807841  0.41560698  0.56934334    -0.33000
C1383       C  0.61578006  0.39286399  0.57548969     0.36300
C1384       C  0.65376430  0.41775392  0.59395361    -0.05900
C1385       C  0.67245594  0.46502729  0.60689192    -0.32900
C1386       C  0.65449571  0.48769727  0.60093721     0.36200
H1387       H  0.56951407  0.39601885  0.55436462     0.16500
O1388       O  0.59631163  0.34665631  0.56226827    -0.60400
H1389       H  0.70139012  0.48466980  0.62139349     0.16600
O1390       O  0.67385744  0.53394387  0.61392857    -0.60500
H1391       H  0.69382797  0.55018152  0.60000486     0.43500
H1392       H  0.60701528  0.34549126  0.54239376     0.43500
C1393       C  0.91370031  0.08393617  0.76492701    -0.05600
C1394       C  0.93120801  0.13035869  0.77958142    -0.33000
C1395       C  0.91374912  0.15350597  0.77399518     0.36300
C1396       C  0.87794391  0.13048835  0.75321191    -0.05900
C1397       C  0.86016030  0.08389602  0.73848466    -0.32900
C1398       C  0.87799429  0.06073408  0.74396647     0.36200
H1399       H  0.95831723  0.14882216  0.79602497     0.16500
O1400       O  0.93122400  0.19824776  0.79000650    -0.60400
H1401       H  0.83236387  0.06538944  0.72272608     0.16600
O1402       O  0.85924981  0.51470412  0.72893067    -0.60500
H1403       H  0.86864447  0.51463013  0.70844303     0.43500
H1404       H  0.91695303  0.19572786  0.80838506     0.43500
C1405       C  0.94339641  0.37388376  0.76575498    -0.05600
C1406       C  0.90251587  0.35129645  0.77069413    -0.33000
C1407       C  0.87634754  0.30313488  0.76391431     0.36300
C1408       C  0.89083562  0.27574903  0.75251737    -0.05900
C1409       C  0.93148068  0.29821823  0.74654565    -0.32900
C1410       C  0.95754203  0.34676652  0.75267547     0.36200
H1411       H  0.89051049  0.37099813  0.78028577     0.16500
O1412       O  0.83717020  0.28356143  0.77020743    -0.60400
H1413       H  0.94327907  0.27813357  0.73726029     0.16600
O1414       O  0.99666616  0.36711665  0.74589498    -0.60500
H1415       H  0.01173947  0.36630939  0.76306531     0.43500
H1416       H  0.82298099  0.28573673  0.75310766     0.43500
C1417       C  0.75540597  0.13190214  0.74677778    -0.05600
C1418       C  0.72868224  0.08359056  0.73672266    -0.33000
C1419       C  0.68808677  0.06029913  0.74249836     0.36300
C1420       C  0.67400642  0.08517142  0.75954748    -0.05900
C1421       C  0.69970382  0.13352015  0.76758161    -0.32900
C1422       C  0.73982853  0.15689275  0.76117780     0.36200
H1423       H  0.73951985  0.06364880  0.72498690     0.16500
O1424       O  0.66318344  0.01306991  0.73271661    -0.60400
H1425       H  0.68921172  0.15343666  0.78001564     0.16600
O1426       O  0.76390188  0.20410452  0.77063456    -0.60500
H1427       H  0.77405797  0.21048471  0.79242595     0.43500
H1428       H  0.64811256  0.00739752  0.71294139     0.43500
C1429       C  0.89264490  0.14961750  0.50365873    -0.05600
C1430       C  0.86923372  0.10000440  0.99551845    -0.33000
C1431       C  0.88616860  0.07609663  0.00106800     0.36300
C1432       C  0.92782500  0.10316565  0.51617975    -0.05900
C1433       C  0.94841279  0.15104286  0.52711673    -0.32900
C1434       C  0.93151657  0.17437950  0.52074994     0.36200
H1435       H  0.83785416  0.08033280  0.98521639     0.16500
O1436       O  0.86876224  0.53148245  0.98689392    -0.60400
H1437       H  0.97754778  0.17056147  0.54134260     0.16600
O1438       O  0.95208105  0.22089755  0.53333847    -0.60500
H1439       H  0.97548535  0.23583428  0.52162144     0.43500
H1440       H  0.87749725  0.52717226  0.96655858     0.43500
C1441       C  0.95172717  0.39153314  0.51607427    -0.05600
C1442       C  0.96956163  0.36699716  0.50898514    -0.33000
C1443       C  0.94584174  0.31845610  0.50263281     0.36300
C1444       C  0.90332137  0.29347157  0.50357986    -0.05900
C1445       C  0.88543818  0.31822670  0.50891172    -0.32900
C1446       C  0.90905597  0.36648711  0.51451491     0.36200
H1447       H  0.00219351  0.38541409  0.50917245     0.16500
O1448       O  0.96455100  0.29595621  0.49511421    -0.60400
H1449       H  0.85289875  0.30028815  0.50904665     0.16600
O1450       O  0.88987141  0.38874109  0.51820086    -0.60500
H1451       H  0.88421821  0.39109120  0.49732189     0.43500
H1452       H  0.98358510  0.30529720  0.51351757     0.43500
C1453       C  0.76892044  0.14932497  0.50240029    -0.05600
C1454       C  0.75370710  0.17560512  0.51440045    -0.33000
C1455       C  0.71339688  0.15415322  0.52067103     0.36300
C1456       C  0.68729479  0.10552517  0.51491878    -0.05900
C1457       C  0.70157579  0.07921432  0.50106790    -0.32900
C1458       C  0.74196401  0.10057445  0.49504042     0.36200
H1459       H  0.77347536  0.21306320  0.52005537     0.16500
O1460       O  0.70030154  0.18117812  0.53327208    -0.60400
H1461       H  0.68183819  0.04175047  0.49598439     0.16600
O1462       O  0.75458584  0.07435104  0.98140305    -0.60500
H1463       H  0.75875753  0.06149779  0.99772561     0.43500
H1464       H  0.68823589  0.18483864  0.51560534     0.43500
C1465       C  0.87227943  0.67303008  0.99992600     0.80100
N1466       N  0.83134584  0.65029382  0.99951857    -0.78200
C1467       C  0.81311596  0.67313281  0.99961834     0.82600
N1468       N  0.83653036  0.71926494  0.00036198    -0.78100
C1469       C  0.87749680  0.74236562  0.00040293     0.82700
N1470       N  0.89492407  0.71888552  0.00037159    -0.79800
C1471       C  0.85844727  0.65447362  0.24808439     0.80100
N1472       N  0.81728441  0.63176669  0.24571234    -0.78200
C1473       C  0.79964956  0.65508748  0.24472580     0.82600
N1474       N  0.82366295  0.70125109  0.24600551    -0.78100
C1475       C  0.86472882  0.72441457  0.24816270     0.82700
N1476       N  0.88187169  0.70074593  0.24934599    -0.79800
C1477       C  0.67501366  0.89550787  0.09829656     0.80100
N1478       N  0.71624536  0.92005202  0.10042793    -0.78200
C1479       C  0.73569322  0.89878363  0.10146050     0.82600
N1480       N  0.71335127  0.85254636  0.10016922    -0.78100
C1481       C  0.67220994  0.82756951  0.09822666     0.82700
N1482       N  0.65336838  0.84942766  0.09714817    -0.79800
C1483       C  0.66626256  0.87982169  0.34652773     0.80100
N1484       N  0.64301263  0.83348930  0.34532414    -0.78200
C1485       C  0.65994806  0.80905624  0.34335299     0.82600
N1486       N  0.70041232  0.83138974  0.34193630    -0.78100
C1487       C  0.72407415  0.87734306  0.34287412     0.82700
N1488       N  0.70685722  0.90144334  0.34519945    -0.79800
C1489       C  0.64648677  0.58167384  0.02519321     0.76400
Tb1490     Tb  0.97668186  0.53682303  0.05018874     1.80700
O1491       O  0.63491510  0.60151129  0.04435892    -0.51700
O1492       O  0.61351653  0.02881461  0.08217372    -0.59100
C1493       C  0.57253711  0.62712186  0.07107737     0.92200
O1494       O  0.96822269  0.59674886  0.05158853    -0.58600
Tb1495     Tb  0.57164916  0.53438558  0.04841036     1.78100
O1496       O  0.91131606  0.97127710  0.05538509    -0.59100
O1497       O  0.51332339  0.96536809  0.01899204    -0.77900
O1498       O  0.58489863  0.60367912  0.07838420    -0.77300
O1499       O  0.54987517  0.53984403  0.50207106    -0.62500
C1500       C  0.97771493  0.94266549  0.02655017     0.91800
O1501       O  0.50923974  0.55524073  0.09905086    -0.74500
C1502       C  0.90248026  0.49203816  0.07436503     0.75200
C1503       C  0.60023275  0.98707406  0.07130546     0.76200
O1504       O  0.62037134  0.53866303  0.01692570    -0.59700
O1505       O  0.57163370  0.96805786  0.04974949    -0.51700
O1506       O  0.48712666  0.52031689  0.99959695    -0.77700
O1507       O  0.53777533  0.51618072  0.09166843    -0.61700
C1508       C  0.52184412  0.53333386  0.10859292     0.90000
C1509       C  0.51759709  0.52974312  0.48731946     0.91200
C1510       C  0.94487828  0.57975743  0.02681896     0.75600
O1511       O  0.92915348  0.53495793  0.08257969    -0.51100
O1512       O  0.93419917  0.03803387  0.01402955    -0.52200
O1513       O  0.96387268  0.96219360  0.04373973    -0.65100
O1514       O  0.53916628  0.60812190  0.05413093    -0.66200
C1515       C  0.63431153  0.56158635  0.27128845     0.76400
Tb1516     Tb  0.96483143  0.51602309  0.29403386     1.80700
O1517       O  0.62390403  0.58244453  0.29078841    -0.51700
O1518       O  0.61011288  0.01590178  0.32587865    -0.59100
C1519       C  0.55906669  0.60826841  0.31497557     0.92200
O1520       O  0.95630186  0.57645908  0.29774772    -0.58600
Tb1521     Tb  0.56114662  0.51671474  0.29651821     1.78100
O1522       O  0.89721153  0.95199103  0.29093929    -0.59100
O1523       O  0.50514566  0.94742721  0.26696614    -0.77900
O1524       O  0.57141728  0.58578516  0.32406086    -0.77300
O1525       O  0.54282857  0.52568234  0.24996873    -0.62500
C1526       C  0.97027918  0.92516271  0.27561141     0.91800
O1527       O  0.49352698  0.53616883  0.34462424    -0.74500
C1528       C  0.88905564  0.46856407  0.31480748     0.75200
C1529       C  0.59148014  0.97264639  0.32168647     0.76200
O1530       O  0.60813317  0.51851478  0.26412596    -0.59700
O1531       O  0.55728244  0.95135768  0.30578728    -0.51700
O1532       O  0.47695212  0.49837045  0.24426834    -0.77700
O1533       O  0.53222627  0.50884395  0.34240380    -0.61700
C1534       C  0.51256880  0.52292205  0.35712280     0.90000
C1535       C  0.51057014  0.51290572  0.23372944     0.91200
C1536       C  0.93194587  0.56032903  0.27365204     0.75600
O1537       O  0.91848775  0.50822739  0.32863687    -0.51100
O1538       O  0.92422685  0.02155924  0.25829645    -0.52200
O1539       O  0.95793897  0.94583556  0.29354583    -0.65100
O1540       O  0.52647629  0.58808442  0.29673920    -0.66200
C1541       C  0.51671665  0.52848229  0.45402405    -0.05600
C1542       C  0.98550922  0.02636019  0.43840342    -0.33000
C1543       C  0.48342823  0.02466196  0.40686807     0.36300
C1544       C  0.51342091  0.52521991  0.39044146    -0.05900
C1545       C  0.54574302  0.52870659  0.40628025    -0.32900
C1546       C  0.54774700  0.53057854  0.43766297     0.36200
H1547       H  0.96097659  0.02386108  0.45031000     0.16500
O1548       O  0.94996627  0.01839324  0.39225180    -0.60400
H1549       H  0.56989469  0.53020945  0.39431446     0.16600
O1550       O  0.57962947  0.53297859  0.45175870    -0.60500
H1551       H  0.60208847  0.56634156  0.45696415     0.43500
H1552       H  0.95555804  0.04974696  0.39561734     0.43500
C1553       C  0.51835206  0.52761830  0.14048493    -0.05600
C1554       C  0.54568811  0.52174847  0.15517031    -0.33000
C1555       C  0.54300252  0.51584450  0.18522399     0.36300
C1556       C  0.51259910  0.51586052  0.20126456    -0.05900
C1557       C  0.98477869  0.52076647  0.18642334    -0.32900
C1558       C  0.98742426  0.52654106  0.15633200     0.36200
H1559       H  0.56951104  0.52206460  0.14339360     0.16500
O1560       O  0.57030995  0.51011413  0.19860590    -0.60400
H1561       H  0.96192702  0.02242217  0.19915409     0.16600
O1562       O  0.95995581  0.03237013  0.14348022    -0.60500
H1563       H  0.93533778  0.00056742  0.13578882     0.43500
H1564       H  0.55680084  0.47616023  0.19463722     0.43500
C1565       C  0.58409535  0.65953452  0.32498633    -0.05600
C1566       C  0.62625550  0.68363094  0.33248404    -0.33000
C1567       C  0.65119799  0.73209443  0.33947560     0.36300
C1568       C  0.63408909  0.75776547  0.33929426    -0.05900
C1569       C  0.59160700  0.73350634  0.33335445    -0.32900
C1570       C  0.56678218  0.68506976  0.32642841     0.36200
H1571       H  0.64027078  0.66488252  0.33209281     0.16500
O1572       O  0.69225358  0.75380920  0.34664948    -0.60400
H1573       H  0.57738953  0.75199532  0.33345105     0.16600
O1574       O  0.52556286  0.66319430  0.32118058    -0.60500
H1575       H  0.51579489  0.65694105  0.34115697     0.43500
H1576       H  0.70234063  0.74979969  0.32692237     0.43500
C1577       C  0.76721640  0.89973236  0.33797121    -0.05600
C1578       C  0.79544395  0.94715256  0.35046664    -0.33000
C1579       C  0.83534130  0.46948332  0.34345329     0.36300
C1580       C  0.84813635  0.94509315  0.32462270    -0.05900
C1581       C  0.82024545  0.89753264  0.31271432    -0.32900
C1582       C  0.78017074  0.87479184  0.31925530     0.36200
H1583       H  0.78535591  0.46658316  0.36343361     0.16500
O1584       O  0.86137891  0.51630384  0.35487653    -0.60400
H1585       H  0.82925908  0.87798098  0.29767774     0.16600
O1586       O  0.75361729  0.82857196  0.30610974    -0.60500
H1587       H  0.74124571  0.82731460  0.28642911     0.43500
H1588       H  0.87331813  0.51971962  0.37542348     0.43500
C1589       C  0.64656532  0.90482496  0.34486106    -0.05600
C1590       C  0.60479650  0.87915072  0.33437334    -0.33000
C1591       C  0.58607073  0.90090566  0.32833163     0.36300
C1592       C  0.60901431  0.94940797  0.33253134    -0.05900
C1593       C  0.65014595  0.97548152  0.34504593    -0.32900
C1594       C  0.66898607  0.95367961  0.35113160     0.36200
H1595       H  0.58659512  0.84169250  0.32957827     0.16500
O1596       O  0.54557099  0.87406484  0.31708214    -0.60400
H1597       H  0.66774074  0.51230309  0.34930899     0.16600
O1598       O  0.70923548  0.98051133  0.36322363    -0.60500
H1599       H  0.72416891  0.49032514  0.34581664     0.43500
H1600       H  0.53100100  0.86652040  0.33525587     0.43500
C1601       C  0.64756281  0.77634136  0.09440127    -0.05600
C1602       C  0.60494523  0.75177528  0.09155630    -0.33000
C1603       C  0.58039761  0.70348823  0.08526872     0.36300
C1604       C  0.59805140  0.67823828  0.08149158    -0.05900
C1605       C  0.64055797  0.70252058  0.08594165    -0.32900
C1606       C  0.66529954  0.75102597  0.09200738     0.36200
H1607       H  0.59021547  0.76988965  0.09366109     0.16500
O1608       O  0.53902986  0.68139696  0.08261192    -0.60400
H1609       H  0.65479770  0.68386575  0.08348299     0.16600
O1610       O  0.70668043  0.77298421  0.09499654    -0.60500
H1611       H  0.71362165  0.77192193  0.07374789     0.43500
H1612       H  0.53167568  0.67627051  0.10328401     0.43500
C1613       C  0.78004184  0.92385446  0.09950887    -0.05600
C1614       C  0.79590713  0.89824012  0.08793237    -0.33000
C1615       C  0.83601621  0.92017725  0.08157124     0.36300
C1616       C  0.86140887  0.96876871  0.08663753    -0.05900
C1617       C  0.84669588  0.49367255  0.09828079    -0.32900
C1618       C  0.80633949  0.97269211  0.10668682     0.36200
H1619       H  0.77676010  0.86076973  0.08248651     0.16500
O1620       O  0.84957935  0.89349294  0.06939353    -0.60400
H1621       H  0.86580326  0.53114852  0.10313068     0.16600
O1622       O  0.79280363  0.99930053  0.11917329    -0.60500
H1623       H  0.79460932  0.49893116  0.13928742     0.43500
H1624       H  0.85875132  0.88718599  0.08724497     0.43500
C1625       C  0.61746996  0.96325291  0.08137847    -0.05600
C1626       C  0.59813550  0.91567027  0.06929054    -0.33000
C1627       C  0.61581259  0.89290938  0.07545038     0.36300
C1628       C  0.65373629  0.91776233  0.09398832    -0.05900
C1629       C  0.67240442  0.96501741  0.10697179    -0.32900
C1630       C  0.65447370  0.98770773  0.10099797     0.36200
H1631       H  0.56961598  0.89611303  0.05425922     0.16500
O1632       O  0.59639021  0.84672805  0.06216711    -0.60400
H1633       H  0.70130067  0.98463075  0.12152053     0.16600
O1634       O  0.67381812  0.03394089  0.11402435    -0.60500
H1635       H  0.69381475  0.05021440  0.10012529     0.43500
H1636       H  0.60721184  0.84564586  0.04233804     0.43500
C1637       C  0.91373140  0.58394919  0.26485204    -0.05600
C1638       C  0.93122374  0.63037173  0.27949763    -0.33000
C1639       C  0.91375574  0.65350311  0.27389261     0.36300
C1640       C  0.87795308  0.63046677  0.25310253    -0.05900
C1641       C  0.86018856  0.58387667  0.23838117    -0.32900
C1642       C  0.87803497  0.56073307  0.24387834     0.36200
H1643       H  0.95832846  0.64884760  0.29594786     0.16500
O1644       O  0.93121962  0.69824868  0.28989170    -0.60400
H1645       H  0.83239764  0.56535766  0.22261481     0.16600
O1646       O  0.85924760  0.01472920  0.22900147    -0.60500
H1647       H  0.86869069  0.01465901  0.20853141     0.43500
H1648       H  0.91695449  0.69573449  0.30827324     0.43500
C1649       C  0.94337413  0.87384198  0.26571389    -0.05600
C1650       C  0.90245590  0.85124045  0.27054766    -0.33000
C1651       C  0.87628533  0.80307646  0.26372367     0.36300
C1652       C  0.89080952  0.77570277  0.25239544    -0.05900
C1653       C  0.93149442  0.79819230  0.24652107    -0.32900
C1654       C  0.95755855  0.84674183  0.25269163     0.36200
H1655       H  0.89042129  0.87093307  0.28008504     0.16500
O1656       O  0.83706104  0.78348823  0.26990012    -0.60400
H1657       H  0.94332588  0.77812337  0.23728696     0.16600
O1658       O  0.99672689  0.86711155  0.24601182    -0.60500
H1659       H  0.01170892  0.86620851  0.26319678     0.43500
H1660       H  0.82293904  0.78559686  0.25271783     0.43500
C1661       C  0.75539545  0.63185162  0.24668859    -0.05600
C1662       C  0.72865122  0.58354369  0.23661893    -0.33000
C1663       C  0.68806099  0.56026546  0.24241322     0.36300
C1664       C  0.67400916  0.58514713  0.25949512    -0.05900
C1665       C  0.69972970  0.63349318  0.26754894    -0.32900
C1666       C  0.73984688  0.65685189  0.26113036     0.36200
H1667       H  0.73946838  0.56359580  0.22485538     0.16500
O1668       O  0.66313482  0.51304004  0.23261452    -0.60400
H1669       H  0.68926192  0.65341839  0.28001067     0.16600
O1670       O  0.76394436  0.70405936  0.27061780    -0.60500
H1671       H  0.77414898  0.71040031  0.29239004     0.43500
H1672       H  0.64806001  0.50739640  0.21284945     0.43500
C1673       C  0.89263463  0.64958061  0.00358545    -0.05600
C1674       C  0.86910639  0.59998636  0.49575955    -0.33000
C1675       C  0.88603778  0.57607081  0.50129551     0.36300
C1676       C  0.92779441  0.60310545  0.01610263    -0.05900
C1677       C  0.94847131  0.65101343  0.02692540    -0.32900
C1678       C  0.93158528  0.67436037  0.02055830     0.36200
H1679       H  0.83770287  0.58031784  0.48551468     0.16500
O1680       O  0.86895485  0.03159835  0.48675236    -0.60400
H1681       H  0.97767057  0.67055136  0.04106602     0.16600
O1682       O  0.95225368  0.72092050  0.03303448    -0.60500
H1683       H  0.97555538  0.73572380  0.02120591     0.43500
H1684       H  0.87781594  0.02743842  0.46644887     0.43500
C1685       C  0.95173638  0.89153295  0.01609504    -0.05600
C1686       C  0.96955998  0.86699110  0.00895705    -0.33000
C1687       C  0.94583310  0.81844531  0.00258451     0.36300
C1688       C  0.90331930  0.79346279  0.00356822    -0.05900
C1689       C  0.88544702  0.81822441  0.00895327    -0.32900
C1690       C  0.90906716  0.86648603  0.01457020     0.36200
H1691       H  0.00218742  0.88540552  0.00911349     0.16500
O1692       O  0.96452407  0.79593748  0.99499928    -0.60400
H1693       H  0.85291247  0.80028915  0.00911815     0.16600
O1694       O  0.88988416  0.88874068  0.01830384    -0.60500
H1695       H  0.88417716  0.89107729  0.99743419     0.43500
H1696       H  0.98363069  0.80530427  0.01336041     0.43500
C1697       C  0.76890569  0.64929409  0.00236812    -0.05600
C1698       C  0.75366658  0.67557241  0.01430338    -0.33000
C1699       C  0.71335646  0.65412349  0.02057762     0.36300
C1700       C  0.68727952  0.60549931  0.01489909    -0.05900
C1701       C  0.70158278  0.57918204  0.00111023    -0.32900
C1702       C  0.74196828  0.60053894  0.99507373     0.36200
H1703       H  0.77341372  0.71303159  0.01990248     0.16500
O1704       O  0.70023504  0.68115145  0.03310643    -0.60400
H1705       H  0.68186418  0.54171903  0.99608067     0.16600
O1706       O  0.75451945  0.57443000  0.48134284    -0.60500
H1707       H  0.75863485  0.56146351  0.49761491     0.43500
H1708       H  0.68815994  0.68473638  0.01540513     0.43500
C1709       C  0.87217412  0.67311804  0.50160303     0.80100
N1710       N  0.83126548  0.65074050  0.50117983    -0.78200
C1711       C  0.81333305  0.67393007  0.50165950     0.82600
N1712       N  0.83705152  0.72021612  0.50285039    -0.78100
C1713       C  0.87804563  0.74306779  0.50294914     0.82700
N1714       N  0.89511692  0.71912428  0.50247790    -0.79800
C1715       C  0.85853372  0.65437923  0.74758687     0.80100
N1716       N  0.81737384  0.63170662  0.74527988    -0.78200
C1717       C  0.79977887  0.65512831  0.74456535     0.82600
N1718       N  0.82382874  0.70135952  0.74606032    -0.78100
C1719       C  0.86489287  0.72449145  0.74815576     0.82700
N1720       N  0.88198516  0.70071361  0.74904673    -0.79800
C1721       C  0.67537133  0.89473481  0.59596737     0.80100
N1722       N  0.71650280  0.91877138  0.59767543    -0.78200
C1723       C  0.73568245  0.89720356  0.59849925     0.82600
N1724       N  0.71314615  0.85100394  0.59740214    -0.78100
C1725       C  0.67202381  0.82645442  0.59596597     0.82700
N1726       N  0.65346292  0.84869976  0.59509779    -0.79800
C1727       C  0.66577861  0.87906779  0.84563547     0.80100
N1728       N  0.64256467  0.83271129  0.84433837    -0.78200
C1729       C  0.65956484  0.80834237  0.84228755     0.82600
N1730       N  0.70003862  0.83076807  0.84089825    -0.78100
C1731       C  0.72366070  0.87673740  0.84191381     0.82700
N1732       N  0.70638441  0.90077576  0.84432115    -0.79800
C1733       C  0.64581643  0.58095309  0.52561404     0.76400
Tb1734     Tb  0.97533108  0.53537283  0.55044189     1.80700
O1735       O  0.63312024  0.60064750  0.54365831    -0.51700
O1736       O  0.61538434  0.03002617  0.58107627    -0.59100
C1737       C  0.57120366  0.62594012  0.57091283     0.92200
O1738       O  0.96793008  0.59585426  0.55101070    -0.58600
Tb1739     Tb  0.57062591  0.53307929  0.54856449     1.78100
O1740       O  0.91335303  0.97167921  0.55499704    -0.59100
O1741       O  0.51418903  0.96603718  0.51926327    -0.77900
O1742       O  0.58370408  0.60257479  0.57816612    -0.77300
O1743       O  0.55206828  0.54368515  0.00246368    -0.62500
C1744       C  0.97861026  0.94351612  0.52693506     0.91800
O1745       O  0.50820385  0.55381676  0.59913402    -0.74500
C1746       C  0.90169366  0.49195545  0.57550358     0.75200
C1747       C  0.60182565  0.98821798  0.57015107     0.76200
O1748       O  0.62060657  0.53767344  0.51828836    -0.59700
O1749       O  0.57260412  0.96914429  0.54911620    -0.51700
O1750       O  0.48586827  0.51989860  0.49969981    -0.77700
O1751       O  0.53620625  0.51423700  0.59151011    -0.61700
C1752       C  0.52054470  0.53160542  0.60856054     0.90000
C1753       C  0.51934316  0.53197544  0.98746014     0.91200
C1754       C  0.94310344  0.57765302  0.52696113     0.75600
O1755       O  0.92933215  0.53452013  0.58417807    -0.51100
O1756       O  0.93748825  0.04122241  0.51311233    -0.52200
O1757       O  0.96459242  0.96332629  0.54358307    -0.65100
O1758       O  0.53751621  0.60682680  0.55435757    -0.66200
C1759       C  0.63437084  0.56141565  0.77102709     0.76400
Tb1760     Tb  0.96455751  0.51565999  0.79371207     1.80700
O1761       O  0.62416486  0.58217043  0.79079880    -0.51700
O1762       O  0.61007334  0.01572355  0.82575275    -0.59100
C1763       C  0.55879535  0.60772390  0.81437473     0.92200
O1764       O  0.95674809  0.57652583  0.79666753    -0.58600
Tb1765     Tb  0.56124173  0.51656216  0.79631986     1.78100
O1766       O  0.89762004  0.95182592  0.79116347    -0.59100
O1767       O  0.50520144  0.94778302  0.76668972    -0.77900
O1768       O  0.57113952  0.58539347  0.82367851    -0.77300
O1769       O  0.54271881  0.52599809  0.75000366    -0.62500
C1770       C  0.97033279  0.92538156  0.77533748     0.91800
O1771       O  0.49304751  0.53581723  0.84439329    -0.74500
C1772       C  0.88888069  0.46878460  0.81467982     0.75200
C1773       C  0.59122558  0.97244617  0.82161672     0.76200
O1774       O  0.60797232  0.51841421  0.76356782    -0.59700
O1775       O  0.55690312  0.95134493  0.80595297    -0.51700
O1776       O  0.47629619  0.49620382  0.74421511    -0.77700
O1777       O  0.53320303  0.51034405  0.84257427    -0.61700
C1778       C  0.51304818  0.52385550  0.85712129     0.90000
C1779       C  0.51002345  0.51179592  0.73370679     0.91200
C1780       C  0.93213023  0.56009199  0.77269117     0.75600
O1781       O  0.91849658  0.50834655  0.82847780    -0.51100
O1782       O  0.92443437  0.02213987  0.75888490    -0.52200
O1783       O  0.95795532  0.94594975  0.79332334    -0.65100
O1784       O  0.52628228  0.58744760  0.79603449    -0.66200
C1785       C  0.51848988  0.53107724  0.95421781    -0.05600
C1786       C  0.98422537  0.02469288  0.93821428    -0.33000
C1787       C  0.48245965  0.02323708  0.90670535     0.36300
C1788       C  0.51449399  0.52707957  0.89055030    -0.05900
C1789       C  0.54758149  0.53208561  0.90644756    -0.32900
C1790       C  0.54994565  0.53437336  0.93788643     0.36200
H1791       H  0.95989537  0.02282083  0.95009691     0.16500
O1792       O  0.94946910  0.01792093  0.89204732    -0.60400
H1793       H  0.57198915  0.53433525  0.89446580     0.16600
O1794       O  0.58253180  0.53817424  0.95204590    -0.60500
H1795       H  0.60443543  0.57174615  0.95701002     0.43500
H1796       H  0.95574741  0.04957466  0.89534100     0.43500
C1797       C  0.51705683  0.52577040  0.64043941    -0.05600
C1798       C  0.54337396  0.51801388  0.65466081    -0.33000
C1799       C  0.54083170  0.51228489  0.68474873     0.36300
C1800       C  0.51163770  0.51435957  0.70124560    -0.05900
C1801       C  0.98480091  0.52106706  0.68690551    -0.32900
C1802       C  0.98732762  0.52674733  0.65680534     0.36200
H1803       H  0.56631398  0.51676189  0.64251720     0.16500
O1804       O  0.56703429  0.50464099  0.69772891    -0.60400
H1805       H  0.96105510  0.02067181  0.69822146     0.16600
O1806       O  0.95919750  0.03038628  0.64247079    -0.60500
H1807       H  0.93559171  0.99806857  0.63426705     0.43500
H1808       H  0.55173665  0.47055530  0.69475002     0.43500
C1809       C  0.58383044  0.65891559  0.82421844    -0.05600
C1810       C  0.62608043  0.68296517  0.83089522    -0.33000
C1811       C  0.65102222  0.73139224  0.83773120     0.36300
C1812       C  0.63379884  0.75706511  0.83825955    -0.05900
C1813       C  0.59124175  0.73281720  0.83315109    -0.32900
C1814       C  0.56642527  0.68439028  0.82635793     0.36200
H1815       H  0.64014175  0.66419965  0.82996018     0.16500
O1816       O  0.69219624  0.75305246  0.84401970    -0.60400
H1817       H  0.57694760  0.75130281  0.83384286     0.16600
O1818       O  0.52514086  0.66246606  0.82199177    -0.60500
H1819       H  0.51600944  0.65516418  0.84193833     0.43500
H1820       H  0.70146355  0.74835288  0.82402001     0.43500
C1821       C  0.76688913  0.89927361  0.83719056    -0.05600
C1822       C  0.79492132  0.94678991  0.84950946    -0.33000
C1823       C  0.83567227  0.46975092  0.84407688     0.36300
C1824       C  0.84809504  0.94475367  0.82445416    -0.05900
C1825       C  0.82039119  0.89712542  0.81269043    -0.32900
C1826       C  0.78017146  0.87433514  0.81890933     0.36200
H1827       H  0.78605632  0.46687166  0.86473982     0.16500
O1828       O  0.86192737  0.51648434  0.85573093    -0.60400
H1829       H  0.82966318  0.87755929  0.79799558     0.16600
O1830       O  0.75381596  0.82805390  0.80586299    -0.60500
H1831       H  0.74181287  0.82658250  0.78593506     0.43500
H1832       H  0.87407828  0.51953189  0.87608455     0.43500
C1833       C  0.64607100  0.90408010  0.84413639    -0.05600
C1834       C  0.60438657  0.87848528  0.83340099    -0.33000
C1835       C  0.58572126  0.90038434  0.82756058     0.36300
C1836       C  0.60864735  0.94895706  0.83222496    -0.05900
C1837       C  0.64968433  0.97489136  0.84494608    -0.32900
C1838       C  0.66845621  0.95294185  0.85083392     0.36200
H1839       H  0.58623177  0.84101251  0.82825104     0.16500
O1840       O  0.54532876  0.87363293  0.81601391    -0.60400
H1841       H  0.66816443  0.51282956  0.84917102     0.16600
O1842       O  0.70860724  0.97963659  0.86316734    -0.60500
H1843       H  0.72453836  0.49084727  0.84590240     0.43500
H1844       H  0.53048652  0.86600086  0.83405623     0.43500
C1845       C  0.64704828  0.77527360  0.59272012    -0.05600
C1846       C  0.60444591  0.75102427  0.58997930    -0.33000
C1847       C  0.57962408  0.70275072  0.58428115     0.36300
C1848       C  0.59697114  0.67716398  0.58093649    -0.05900
C1849       C  0.63946244  0.70119948  0.58541361    -0.32900
C1850       C  0.66447151  0.74967466  0.59094072     0.36200
H1851       H  0.58993771  0.76936471  0.59171243     0.16500
O1852       O  0.53829921  0.68101313  0.58177963    -0.60400
H1853       H  0.65349776  0.68234286  0.58342949     0.16600
O1854       O  0.70581880  0.77133381  0.59412894    -0.60500
H1855       H  0.71280726  0.76911656  0.57292997     0.43500
H1856       H  0.53113242  0.67672595  0.60261328     0.43500
C1857       C  0.78003698  0.92230754  0.59666198    -0.05600
C1858       C  0.79610434  0.89698904  0.58492593    -0.33000
C1859       C  0.83647013  0.91934894  0.57907000     0.36300
C1860       C  0.86179797  0.96802822  0.58470811    -0.05900
C1861       C  0.84671003  0.49469637  0.60018702    -0.32900
C1862       C  0.80622665  0.97115161  0.60434878     0.36200
H1863       H  0.77697564  0.85951100  0.57908616     0.16500
O1864       O  0.85037134  0.89303133  0.56687651    -0.60400
H1865       H  0.86594057  0.53214454  0.60465676     0.16600
O1866       O  0.79249049  0.99744625  0.61707616    -0.60500
H1867       H  0.79474575  0.50054509  0.64149436     0.43500
H1868       H  0.85939072  0.88653719  0.58470390     0.43500
C1869       C  0.61921815  0.96426075  0.57969934    -0.05600
C1870       C  0.59864739  0.91628119  0.56862391    -0.33000
C1871       C  0.61586644  0.89298025  0.57463064     0.36300
C1872       C  0.65458946  0.91767072  0.59196881    -0.05900
C1873       C  0.67468246  0.96549483  0.60379915    -0.32900
C1874       C  0.65727540  0.98875876  0.59792073     0.36200
H1875       H  0.56937257  0.89673527  0.55458574     0.16500
O1876       O  0.59509204  0.84632713  0.56240708    -0.60400
H1877       H  0.70432004  0.98511882  0.61731494     0.16600
O1878       O  0.67819067  0.03556360  0.60957040    -0.60500
H1879       H  0.69624932  0.04997452  0.59415086     0.43500
H1880       H  0.60408232  0.84359197  0.54195814     0.43500
C1881       C  0.91400574  0.58376304  0.76375706    -0.05600
C1882       C  0.93160791  0.63023019  0.77835099    -0.33000
C1883       C  0.91399802  0.65331017  0.77299738     0.36300
C1884       C  0.87805664  0.63028746  0.75236744    -0.05900
C1885       C  0.86023826  0.58369153  0.73760473    -0.32900
C1886       C  0.87814290  0.56052549  0.74294916     0.36200
H1887       H  0.95883960  0.64873827  0.79467703     0.16500
O1888       O  0.93140415  0.69795647  0.78917464    -0.60400
H1889       H  0.83233002  0.56516395  0.72197037     0.16600
O1890       O  0.85921093  0.01495797  0.72987613    -0.60500
H1891       H  0.86933681  0.01502762  0.70966111     0.43500
H1892       H  0.91699342  0.69524072  0.80749094     0.43500
C1893       C  0.94349223  0.87400503  0.76552925    -0.05600
C1894       C  0.90270884  0.85135170  0.77077176    -0.33000
C1895       C  0.87661613  0.80318673  0.76416687     0.36300
C1896       C  0.89102292  0.77581505  0.75250736    -0.05900
C1897       C  0.93158687  0.79832303  0.74630577    -0.32900
C1898       C  0.95760586  0.84689328  0.75235232     0.36200
H1899       H  0.89072617  0.87100745  0.78051882     0.16500
O1900       O  0.83762261  0.78360291  0.77091917    -0.60400
H1901       H  0.94334453  0.77824979  0.73688179     0.16600
O1902       O  0.99664704  0.86726148  0.74538419    -0.60500
H1903       H  0.01196356  0.86692114  0.76262094     0.43500
H1904       H  0.82303464  0.78554080  0.75397199     0.43500
C1905       C  0.75552383  0.63187391  0.74655342    -0.05600
C1906       C  0.72872068  0.58360524  0.73623166    -0.33000
C1907       C  0.68812399  0.56025962  0.74202998     0.36300
C1908       C  0.67409526  0.58504322  0.75927974    -0.05900
C1909       C  0.69989082  0.63337315  0.76760783    -0.32900
C1910       C  0.74003736  0.65678994  0.76126986     0.36200
H1911       H  0.73950857  0.56372744  0.72429533     0.16500
O1912       O  0.66319718  0.51305007  0.73212129    -0.60400
H1913       H  0.68946442  0.65322845  0.78024908     0.16600
O1914       O  0.76423395  0.70394324  0.77113886    -0.60500
H1915       H  0.77442900  0.70983191  0.79284079     0.43500
H1916       H  0.64807164  0.50751046  0.71241231     0.43500
C1917       C  0.89196519  0.64865534  0.50423776    -0.05600
C1918       C  0.87235253  0.60165266  0.99188885    -0.33000
C1919       C  0.88996640  0.57848536  0.99765068     0.36300
C1920       C  0.92605367  0.60082836  0.51609437    -0.05900
C1921       C  0.94933941  0.64919916  0.52337584    -0.32900
C1922       C  0.93297198  0.67316603  0.51727130     0.36200
H1923       H  0.84251506  0.58199576  0.97868079     0.16500
O1924       O  0.86241083  0.02864104  0.99404080    -0.60400
H1925       H  0.98030250  0.66873144  0.53460782     0.16600
O1926       O  0.95671332  0.72050142  0.52617936    -0.60500
H1927       H  0.97647046  0.73090048  0.51111393     0.43500
H1928       H  0.86661443  0.01956346  0.97281557     0.43500
C1929       C  0.95277159  0.89228696  0.51716803    -0.05600
C1930       C  0.97071641  0.86768670  0.51183460    -0.33000
C1931       C  0.94694333  0.81916949  0.50607270     0.36300
C1932       C  0.90420733  0.79421777  0.50597574    -0.05900
C1933       C  0.88632314  0.81904741  0.50968213    -0.32900
C1934       C  0.91003918  0.86727388  0.51454584     0.36200
H1935       H  0.00344075  0.88605902  0.51285630     0.16500
O1936       O  0.96587635  0.79669895  0.50008025    -0.60400
H1937       H  0.85367157  0.80117084  0.50887019     0.16600
O1938       O  0.89090605  0.88952955  0.51621301    -0.60500
H1939       H  0.88669566  0.89146485  0.49489078     0.43500
H1940       H  0.98416822  0.80648788  0.51906926     0.43500
C1941       C  0.76896991  0.64995447  0.50393349    -0.05600
C1942       C  0.75368660  0.67588245  0.51653876    -0.33000
C1943       C  0.71313046  0.65405620  0.52229800     0.36300
C1944       C  0.68686122  0.60535297  0.51558557    -0.05900
C1945       C  0.70126564  0.57949504  0.50106744    -0.32900
C1946       C  0.74184771  0.60124123  0.49539349     0.36200
H1947       H  0.77357018  0.71330665  0.52304286     0.16500
O1948       O  0.69999696  0.68078237  0.53546123    -0.60400
H1949       H  0.68142858  0.54203378  0.49508945     0.16600
O1950       O  0.75464217  0.57328647  0.98196906    -0.60500
H1951       H  0.75952500  0.56192467  0.99893742     0.43500
H1952       H  0.68900042  0.68606137  0.51804477     0.43500
loop_ 
_geom_bond_atom_site_label_1 
_geom_bond_atom_site_label_2 
_geom_bond_distance 
_geom_bond_site_symmetry_2 
_ccdc_geom_bond_type 
C1            N2   1.359       .  A
C1            N6   1.356       .  A
C1          C209   1.486       .  S
N2            C3   1.361       .  A
C3            N4   1.362       .  A
C3          C233   1.492       .  S
N4            C5   1.363       .  A
C5            N6   1.355       .  A
C5          C224   1.493       .  S
C7            N8   1.361       .  A
C7           N12   1.361       .  A
C7          C176   1.485       .  S
N8            C9   1.363       .  A
C9           N10   1.358       .  A
C9          C197   1.488       .  S
N10          C11   1.357       .  A
C11          N12   1.358       .  A
C11         C188   1.490       .  S
C13          N14   1.358       .  A
C13          N18   1.358       .  A
C13         C164   1.484       .  S
N14          C15   1.359       .  A
C15          N16   1.360       .  A
C15         C149   1.486       .  S
N16          C17   1.358       .  A
C17          N18   1.359       .  A
C17         C137   1.492       .  S
C19          N20   1.363       .  A
C19          N24   1.361       .  A
C19         C125   1.492       .  S
N20          C21   1.361       .  A
C21          N22   1.355       .  A
C21         C104   1.491       .  S
N22          C23   1.354       .  A
C23          N24   1.359       .  A
C23         C113   1.480       .  S
C25         C236   1.485       .  S
C25          O40   1.260       .  A
C25          O27   1.261       .  A
Tb26         O30   2.332       .  S
Tb26         O47   2.371       .  S
Tb26        O536   2.365       .  S
Tb26        O537   2.345   1_545  S
Tb26        O520   2.344   1_545  S
Tb26       O1018   2.331   1_554  S
Tb26       O1013   2.331       .  S
Tb26       O1026   2.345       .  S
O27         Tb31   2.365       .  S
O28          C39   1.260       .  A
O28        Tb519   2.364       .  S
C29         C140   1.484       .  S
C29          O34   1.271       .  A
C29          O50   1.269       .  A
O30          C46   1.259       .  A
Tb31         O40   2.361       .  S
Tb31         O34   2.348       .  S
Tb31         O43   2.347       .  S
Tb31        O516   2.364       .  S
Tb31        O279   2.344       .  S
Tb31        O529   2.356   1_545  S
Tb31        O521   2.342   1_545  S
O32         C526   1.257       .  A
O32        Tb514   2.344       .  S
O33        C1012   1.270   1_455  A
O33        Tb519   2.343       .  S
O35          C45   1.272       .  A
O35        Tb275   2.346       .  S
C36         C221   1.483       .  S
C36          O49   1.270       .  A
C36        O1009   1.270       .  A
O37          C44   1.269       .  A
O37       Tb1002   2.331   1_455  S
C38         C640   1.480       .  S
C38          O47   1.261   1_565  A
C38         O520   1.257       .  A
C39         C161   1.481       .  S
C39          O41   1.259       .  A
O41        Tb519   2.355       .  S
O42         C289   1.271   1_655  A
O42       Tb1002   2.330   1_556  S
O43          C44   1.271       .  A
C44          C89   1.478       .  S
C45          C77   1.484       .  S
C45         O286   1.270   1_455  A
C46         C212   1.470       .  S
C46         O536   1.262       .  A
O48         C534   1.262       .  A
O48        Tb514   2.367       .  S
O49        Tb514   2.346       .  S
O50       Tb1002   2.345   1_455  S
C51         C200   1.478       .  S
C51          O66   1.259       .  A
C51          O53   1.261       .  A
Tb52         O56   2.341       .  S
Tb52         O73   2.346       .  S
Tb52        O562   2.379       .  S
Tb52        O563   2.353   1_545  S
Tb52        O546   2.345   1_545  S
Tb52       O1044   2.324   1_545  S
Tb52       O1039   2.335       .  S
Tb52       O1052   2.351       .  S
O53         Tb57   2.351       .  S
O54          C65   1.259       .  A
O54        Tb545   2.370       .  S
C55         C101   1.482       .  S
C55          O60   1.270       .  A
C55          O76   1.270       .  A
O56          C72   1.259       .  A
Tb57         O61   2.346       .  S
Tb57         O66   2.355       .  S
Tb57         O60   2.342       .  S
Tb57         O69   2.345       .  S
Tb57        O542   2.369       .  S
Tb57        O555   2.362   1_545  S
Tb57        O547   2.337   1_545  S
O58         C552   1.262       .  A
O58        Tb540   2.347       .  S
O59        C1038   1.267   1_455  A
O59        Tb545   2.339       .  S
O61          C71   1.271       .  A
C62         C185   1.488       .  S
C62          O75   1.271       .  A
C62        O1035   1.267       .  A
O63          C70   1.271   1_655  A
O63       Tb1028   2.335       .  S
C64         C604   1.473       .  S
C64          O73   1.260   1_565  A
C64         O546   1.262       .  A
C65         C128   1.487       .  S
C65          O67   1.260       .  A
O67        Tb545   2.361       .  S
O68          C71   1.269   1_665  A
O68       Tb1028   2.324   1_565  S
O69          C70   1.273       .  A
C70          C80   1.479       .  S
C71          C92   1.474       .  S
C72         C173   1.485       .  S
C72         O562   1.263       .  A
O74         C560   1.263       .  A
O74        Tb540   2.376       .  S
O75        Tb540   2.353       .  S
O76       Tb1028   2.350   1_455  S
C77          C82   1.413       .  A
C77        C1542   1.407   1_455  A
C78        C1541   1.407       .  A
C78        C1055   1.400       .  A
C78          H83   1.083       .  S
C79        C1054   1.400       .  A
C79         C568   1.410   1_655  A
C79        O1060   1.371       .  S
C80          C81   1.404       .  A
C80         C567   1.410   1_455  A
C81          C82   1.396       .  A
C81          H85   1.084       .  S
C82          O86   1.372       .  S
O84        C1055   1.371       .  S
O84          H88   0.992       .  S
O86          H87   0.992       .  S
C89          C90   1.405       .  A
C89        C1070   1.410   1_455  A
C90          C91   1.397       .  A
C90          H95   1.084       .  S
C91          C92   1.410       .  A
C91          O96   1.372       .  S
C92        C1069   1.403   1_455  A
C93          C94   1.397       .  A
C93        C1068   1.403       .  A
C93         H585   1.084       .  S
C94        C1065   1.410       .  A
C94         O586   1.370       .  S
O96         H100   0.992   1_545  S
H97         C581   1.084       .  S
O98         C582   1.370       .  S
O98          H99   0.992       .  S
C101        C102   1.401       .  A
C101        C106   1.411       .  A
C102        C103   1.400       .  A
C102        H107   1.083       .  S
C103        C104   1.417       .  A
C103        O108   1.372       .  S
C104        C105   1.406       .  A
C105        C106   1.400       .  A
C105        H109   1.083       .  S
C106        O110   1.369       .  S
O108        H112   0.991       .  S
O110        H111   0.991       .  S
C113        C114   1.403       .  A
C113        C118   1.414       .  A
C114        C603   1.400       .  A
C114        H607   1.084       .  S
C115        C602   1.400       .  A
C115        C604   1.410       .  A
C115        O120   1.372   1_565  S
C116        C552   1.473       .  S
C116        C117   1.401       .  A
C116        C603   1.410       .  A
C117        C118   1.396       .  A
C117        H121   1.084       .  S
C118        O122   1.371       .  S
H119        C602   1.084       .  S
O120        H124   0.991       .  S
O122        H123   0.992       .  S
C125        C126   1.406       .  A
C125        C130   1.414       .  A
C126        C127   1.400       .  A
C126        H131   1.083       .  S
C127        C128   1.409       .  A
C127        O132   1.371       .  S
C128        C129   1.406       .  A
C129        C130   1.406       .  A
C129        H621   1.084       .  S
C130        O134   1.372       .  S
O132        H136   0.992       .  S
H133        C617   1.084   1_545  S
O134        H623   0.992       .  S
H135        O622   0.992       .  S
C137        C138   1.406       .  A
C137        C142   1.416       .  A
C138        C139   1.397       .  A
C138        H143   1.083       .  S
C139        C140   1.410       .  A
C139        O144   1.371       .  S
C140        C141   1.403       .  A
C141        C142   1.403       .  A
C141        H145   1.083       .  S
C142        O146   1.371       .  S
O144        H148   0.991       .  S
O146        H147   0.992       .  S
C149        C150   1.405       .  A
C149        C154   1.413       .  A
C150        C151   1.397       .  A
C150        H155   1.083       .  S
C151        C152   1.409       .  A
C151        O156   1.370       .  S
C152        C526   1.480       .  S
C152        C641   1.404       .  A
C153        C640   1.405       .  A
C153        C642   1.404       .  A
C153        H157   1.083   1_565  S
C154        C641   1.402       .  A
C154        O158   1.371       .  S
O156        H160   0.992       .  S
O158        H647   0.993       .  S
H159        O646   0.993   1_545  S
C161        C162   1.404       .  A
C161        C166   1.411       .  A
C162        C163   1.399       .  A
C162        H167   1.084       .  S
C163        C164   1.412       .  A
C163        O168   1.372       .  S
C164        C165   1.405       .  A
C165        C166   1.402       .  A
C165        H169   1.084       .  S
C166        O170   1.372       .  S
O168        H172   0.992       .  S
O170        H171   0.992       .  S
C173        C174   1.403       .  A
C173        C178   1.412       .  A
C174        C175   1.396       .  A
C174        H179   1.082       .  S
C175        C176   1.410       .  A
C175        O180   1.372       .  S
C176        C177   1.407       .  A
C177        C178   1.408       .  A
C177        H181   1.084       .  S
C178        O670   1.371       .  S
O180        H184   0.992       .  S
O182        C666   1.371       .  S
O182        H183   0.992       .  S
C185        C186   1.402       .  A
C185        C190   1.413       .  A
C186        C187   1.394       .  A
C186        H191   1.082       .  S
C187        C188   1.412       .  A
C187        O192   1.369       .  S
C188        C189   1.408       .  A
C189        C190   1.406       .  A
C189        H193   1.083       .  S
C190        O194   1.371       .  S
O192        H196   0.992       .  S
O194        H195   0.991       .  S
C197        C198   1.406       .  A
C197        C202   1.415       .  A
C198        C199   1.403       .  A
C198        H203   1.083       .  S
C199        C200   1.411       .  A
C199        O204   1.371       .  S
C200        C201   1.399       .  A
C201        C202   1.395       .  A
C201        H205   1.084       .  S
C202        O206   1.369       .  S
O204        H208   0.992       .  S
O206        H207   0.991       .  S
C209        C214   1.414       .  A
C209        C454   1.408   1_554  A
C210        C211   1.404       .  A
C210        C453   1.407       .  A
C210        H215   1.084       .  S
C211        C456   1.409       .  A
C211        O704   1.371       .  S
C212        C213   1.398       .  A
C212        C455   1.407       .  A
C213        C214   1.394       .  A
C213        H217   1.084       .  S
C214        O218   1.370       .  S
O216        C699   1.371       .  S
O216        H220   0.992       .  S
O218        H219   0.993       .  S
C221        C222   1.401       .  A
C221        C226   1.409       .  A
C222        C223   1.404       .  A
C222        H227   1.083       .  S
C223        C224   1.418       .  A
C223        O228   1.372   1_554  S
C224        C225   1.404       .  A
C225        C226   1.397       .  A
C225        H229   1.083       .  S
C226        O230   1.369       .  S
O228        H232   0.991   1_556  S
O230        H231   0.992   1_554  S
C233        C234   1.408       .  A
C233        C238   1.413   1_554  A
C234        C235   1.403       .  A
C234        H239   1.083       .  S
C235        C236   1.410       .  A
C235        O240   1.371       .  S
C236        C237   1.405       .  A
C237        C238   1.403   1_554  A
C237        H241   1.084   1_554  S
C238        O486   1.372       .  S
O240        H244   0.992       .  S
O242        C482   1.372       .  S
O242        H243   0.992       .  S
C245        N246   1.359       .  A
C245        N250   1.356       .  A
C245        C453   1.482       .  S
N246        C247   1.361       .  A
C247        N248   1.361       .  A
C247        C477   1.491       .  S
N248        C249   1.361       .  A
C249        N250   1.355       .  A
C249        C468   1.490       .  S
C251        N252   1.361       .  A
C251        N256   1.361       .  A
C251        C420   1.485       .  S
N252        C253   1.363       .  A
C253        N254   1.358       .  A
C253        C441   1.488       .  S
N254        C255   1.357       .  A
C255        N256   1.358       .  A
C255        C432   1.490       .  S
C257        N258   1.360       .  A
C257        N262   1.357       .  A
C257        C408   1.483       .  S
N258        C259   1.360       .  A
C259        N260   1.360       .  A
C259        C393   1.486       .  S
N260        C261   1.357       .  A
C261        N262   1.358       .  A
C261        C381   1.491       .  S
C263        N264   1.363       .  A
C263        N268   1.361       .  A
C263        C369   1.492       .  S
N264        C265   1.361       .  A
C265        N266   1.355       .  A
C265        C348   1.491       .  S
N266        C267   1.355       .  A
C267        N268   1.359       .  A
C267        C357   1.479       .  S
C269        C480   1.482       .  S
C269        O284   1.259       .  A
C269        O271   1.261       .  A
Tb270       O780   2.367       .  S
Tb270       O781   2.346   1_545  S
Tb270       O764   2.344   1_545  S
Tb270      O1262   2.329       .  S
Tb270      O1257   2.332       .  S
Tb270       O274   2.334       .  S
Tb270      O1270   2.345       .  S
Tb270       O291   2.370       .  S
O271       Tb275   2.363       .  S
O272        C283   1.260       .  A
O272       Tb763   2.364       .  S
C273        C384   1.482       .  S
C273        O278   1.270       .  A
C273        O294   1.269       .  A
O274        C290   1.259       .  A
Tb275       O760   2.364       .  S
Tb275       O284   2.357       .  S
Tb275       O278   2.346       .  S
Tb275       O773   2.355   1_545  S
Tb275       O287   2.347       .  S
Tb275       O765   2.343   1_545  S
O276        C770   1.257       .  A
O276       Tb758   2.344       .  S
O277       C1256   1.270   1_455  A
O277       Tb763   2.342       .  S
O279        C289   1.272   1_554  A
C280        C465   1.483       .  S
C280       O1253   1.270       .  A
C280        O293   1.270       .  A
O281        C288   1.269       .  A
O281      Tb1246   2.332   1_455  S
C282        C884   1.480       .  S
C282        O764   1.257       .  A
C282        O291   1.261   1_565  A
C283        C405   1.482       .  S
C283        O285   1.260       .  A
O285       Tb763   2.356       .  S
O286      Tb1246   2.328       .  S
O287        C288   1.271       .  A
C288        C333   1.477       .  S
C289        C321   1.484       .  S
C290        C456   1.474       .  S
C290        O780   1.262       .  A
O292        C778   1.262       .  A
O292       Tb758   2.365       .  S
O293       Tb758   2.345       .  S
O294      Tb1246   2.345   1_455  S
C295        C444   1.478       .  S
C295        O310   1.259       .  A
C295        O297   1.262       .  A
Tb296       O806   2.376       .  S
Tb296       O807   2.353   1_545  S
Tb296       O790   2.347   1_545  S
Tb296      O1288   2.327   1_545  S
Tb296      O1283   2.334       .  S
Tb296       O300   2.341       .  S
Tb296      O1296   2.351       .  S
Tb296       O317   2.345       .  S
O297       Tb301   2.352       .  S
O298        C309   1.259       .  A
O298       Tb789   2.369       .  S
C299        C345   1.485       .  S
C299        O304   1.271       .  A
C299        O320   1.270       .  A
O300        C316   1.259       .  A
Tb301       O786   2.370       .  S
Tb301       O305   2.344       .  S
Tb301       O310   2.353       .  S
Tb301       O304   2.347       .  S
Tb301       O799   2.361   1_545  S
Tb301       O313   2.346       .  S
Tb301       O791   2.339   1_545  S
O302        C796   1.262       .  A
O302       Tb784   2.346       .  S
O303       C1282   1.267   1_455  A
O303       Tb789   2.337       .  S
O305        C315   1.271       .  A
C306        C429   1.487       .  S
C306       O1279   1.267       .  A
C306        O319   1.272       .  A
O307        C314   1.270   1_655  A
O307      Tb1272   2.334       .  S
C308        C848   1.473       .  S
C308        O790   1.262       .  A
C308        O317   1.260   1_565  A
C309        C372   1.487       .  S
C309        O311   1.261       .  A
O311       Tb789   2.362       .  S
O312        C315   1.270   1_665  A
O312      Tb1272   2.327   1_565  S
O313        C314   1.273       .  A
C314        C324   1.479       .  S
C315        C336   1.477       .  S
C316        C417   1.484       .  S
C316        O806   1.263       .  A
O318        C804   1.263       .  A
O318       Tb784   2.379       .  S
O319       Tb784   2.353       .  S
O320      Tb1272   2.350   1_455  S
C321       C1786   1.407   1_455  A
C321        C326   1.413       .  A
C322       C1785   1.407       .  A
C322       C1299   1.399       .  A
C322        H327   1.083       .  S
C323       C1298   1.399       .  A
C323        C812   1.410   1_655  A
C323       O1304   1.371       .  S
C324        C811   1.410   1_455  A
C324        C325   1.404       .  A
C325        C326   1.396       .  A
C325        H329   1.084       .  S
C326        O330   1.372       .  S
O328       C1299   1.371       .  S
O328        H332   0.992       .  S
O330        H331   0.992       .  S
C333        C334   1.404       .  A
C333       C1314   1.410   1_455  A
C334        C335   1.397       .  A
C334        H339   1.084       .  S
C335        C336   1.412       .  A
C335        O340   1.372       .  S
C336       C1313   1.404   1_455  A
C337       C1312   1.404       .  A
C337        C338   1.397       .  A
C337        H829   1.084       .  S
C338       C1309   1.410       .  A
C338        O830   1.370       .  S
O340        H344   0.992   1_545  S
H341        C825   1.084       .  S
O342        C826   1.370       .  S
O342        H343   0.992       .  S
C345        C346   1.402       .  A
C345        C350   1.411       .  A
C346        C347   1.401       .  A
C346        H351   1.083       .  S
C347        C348   1.416       .  A
C347        O352   1.372       .  S
C348        C349   1.405       .  A
C349        C350   1.400       .  A
C349        H353   1.083       .  S
C350        O354   1.369       .  S
O352        H356   0.991       .  S
O354        H355   0.991       .  S
C357        C358   1.403       .  A
C357        C362   1.413       .  A
C358        C847   1.400       .  A
C358        H851   1.084       .  S
C359        C846   1.400       .  A
C359        C848   1.410       .  A
C359        O364   1.372   1_565  S
C360        C796   1.473       .  S
C360        C847   1.410       .  A
C360        C361   1.401       .  A
C361        C362   1.396       .  A
C361        H365   1.084       .  S
C362        O366   1.372       .  S
H363        C846   1.084       .  S
O364        H368   0.991       .  S
O366        H367   0.992       .  S
C369        C370   1.406       .  A
C369        C374   1.414       .  A
C370        C371   1.400       .  A
C370        H375   1.083       .  S
C371        C372   1.409       .  A
C371        O376   1.371       .  S
C372        C373   1.407       .  A
C373        C374   1.406       .  A
C373        H865   1.084       .  S
C374        O378   1.372       .  S
O376        H380   0.992       .  S
H377        C861   1.084   1_545  S
O378        H867   0.992       .  S
H379        O866   0.992       .  S
C381        C382   1.406       .  A
C381        C386   1.416       .  A
C382        C383   1.396       .  A
C382        H387   1.083       .  S
C383        C384   1.410       .  A
C383        O388   1.370       .  S
C384        C385   1.403       .  A
C385        C386   1.403       .  A
C385        H389   1.083       .  S
C386        O390   1.371       .  S
O388        H392   0.991       .  S
O390        H391   0.992       .  S
C393        C394   1.405       .  A
C393        C398   1.413       .  A
C394        C395   1.396       .  A
C394        H399   1.083       .  S
C395        C396   1.408       .  A
C395        O400   1.371       .  S
C396        C770   1.480       .  S
C396        C885   1.405       .  A
C397        C884   1.404       .  A
C397        C886   1.402       .  A
C397        H401   1.084   1_565  S
C398        C885   1.404       .  A
C398        O402   1.371       .  S
O400        H404   0.992       .  S
O402        H891   0.993       .  S
H403        O890   0.993       .  S
C405        C406   1.404       .  A
C405        C410   1.411       .  A
C406        C407   1.399       .  A
C406        H411   1.084       .  S
C407        C408   1.413       .  A
C407        O412   1.372       .  S
C408        C409   1.404       .  A
C409        C410   1.402       .  A
C409        H413   1.084       .  S
C410        O414   1.371       .  S
O412        H416   0.992       .  S
O414        H415   0.992       .  S
C417        C418   1.403       .  A
C417        C422   1.411       .  A
C418        C419   1.396       .  A
C418        H423   1.082       .  S
C419        C420   1.410       .  A
C419        O424   1.372       .  S
C420        C421   1.407       .  A
C421        C422   1.408       .  A
C421        H425   1.083       .  S
C422        O914   1.371       .  S
O424        H428   0.992       .  S
O426        C910   1.371       .  S
O426        H427   0.992       .  S
C429        C430   1.402       .  A
C429        C434   1.413       .  A
C430        C431   1.394       .  A
C430        H435   1.082       .  S
C431        C432   1.412       .  A
C431        O436   1.368       .  S
C432        C433   1.407       .  A
C433        C434   1.406       .  A
C433        H437   1.083       .  S
C434        O438   1.371       .  S
O436        H440   0.992       .  S
O438        H439   0.991       .  S
C441        C442   1.406       .  A
C441        C446   1.415       .  A
C442        C443   1.402       .  A
C442        H447   1.083       .  S
C443        C444   1.411       .  A
C443        O448   1.371       .  S
C444        C445   1.399       .  A
C445        C446   1.396       .  A
C445        H449   1.084       .  S
C446        O450   1.369       .  S
O448        H452   0.992       .  S
O450        H451   0.991       .  S
C453        C458   1.412       .  A
C454        C455   1.403   1_556  A
C454        H459   1.083       .  S
C455        O948   1.371   1_554  S
C456        C457   1.400       .  A
C457        C458   1.394       .  A
C457        H461   1.084       .  S
C458        O462   1.371       .  S
O460        C943   1.371       .  S
O460        H464   0.992       .  S
O462        H463   0.992       .  S
C465        C466   1.402       .  A
C465        C470   1.410       .  A
C466        C467   1.403       .  A
C466        H471   1.084       .  S
C467        C468   1.417       .  A
C467        O472   1.372       .  S
C468        C469   1.404       .  A
C469        C470   1.396       .  A
C469        H473   1.083       .  S
C470        O474   1.369       .  S
O472        H476   0.991       .  S
O474        H475   0.992       .  S
C477        C478   1.409       .  A
C477        C482   1.413       .  A
C478        C479   1.402       .  A
C478        H483   1.083       .  S
C479        C480   1.409       .  A
C479        O484   1.372       .  S
C480        C481   1.404       .  A
C481        C482   1.401       .  A
C481        H485   1.084       .  S
O484        H488   0.992       .  S
O486        H487   0.992       .  S
C489        N490   1.359       .  A
C489        N494   1.356   1_556  A
C489        C697   1.482   1_556  S
N490        C491   1.361       .  A
C491        N492   1.361   1_556  A
C491        C721   1.491   1_556  S
N492        C493   1.361       .  A
C493        N494   1.355       .  A
C493        C712   1.490       .  S
C495        N496   1.361       .  A
C495        N500   1.361       .  A
C495        C664   1.485       .  S
N496        C497   1.363       .  A
C497        N498   1.358       .  A
C497        C685   1.488       .  S
N498        C499   1.357       .  A
C499        N500   1.358       .  A
C499        C676   1.490       .  S
C501        N502   1.360       .  A
C501        N506   1.357       .  A
C501        C652   1.483       .  S
N502        C503   1.360       .  A
C503        N504   1.360       .  A
C503        C637   1.486       .  S
N504        C505   1.357       .  A
C505        N506   1.358       .  A
C505        C625   1.491       .  S
C507        N508   1.363       .  A
C507        N512   1.360       .  A
C507        C613   1.492       .  S
N508        C509   1.361       .  A
C509        N510   1.355       .  A
C509        C592   1.491       .  S
N510        C511   1.355       .  A
C511        N512   1.359       .  A
C511        C601   1.479       .  S
C513        C724   1.482       .  S
C513        O528   1.259       .  A
C513        O515   1.261       .  A
Tb514      O1506   2.329   1_554  S
Tb514      O1501   2.332       .  S
Tb514       O518   2.334       .  S
Tb514      O1514   2.345       .  S
Tb514       O535   2.370       .  S
O515       Tb519   2.363       .  S
O516        C527   1.260   1_545  A
C517        C628   1.482       .  S
C517        O522   1.270       .  A
C517        O538   1.269       .  A
O518        C534   1.259       .  A
Tb519       O767   2.346       .  S
Tb519       O528   2.357       .  S
Tb519       O522   2.346       .  S
Tb519       O531   2.347       .  S
O521       C1500   1.270   1_455  A
O523        C533   1.272       .  A
O523       Tb763   2.344       .  S
C524        C709   1.483       .  S
C524       O1497   1.270       .  A
C524        O537   1.270       .  A
O525        C532   1.269       .  A
O525      Tb1490   2.332   1_455  S
C526        O535   1.261       .  A
C527        C649   1.481       .  S
C527        O529   1.260       .  A
O530        C777   1.270   1_655  A
O530      Tb1490   2.328   1_556  S
O531        C532   1.271       .  A
C532        C577   1.477       .  S
C533        C565   1.484       .  S
C533        O774   1.271   1_455  A
C534        C700   1.474       .  S
O538      Tb1490   2.345   1_455  S
C539        C688   1.478       .  S
C539        O554   1.259       .  A
C539        O541   1.262       .  A
Tb540      O1532   2.326       .  S
Tb540      O1527   2.334       .  S
Tb540       O544   2.341       .  S
Tb540      O1540   2.351       .  S
Tb540       O561   2.345       .  S
O541       Tb545   2.352       .  S
O542        C553   1.259   1_545  A
C543        C589   1.485       .  S
C543        O548   1.271       .  A
C543        O564   1.270       .  A
O544        C560   1.259       .  A
Tb545       O549   2.344       .  S
Tb545       O554   2.353       .  S
Tb545       O548   2.347       .  S
Tb545       O557   2.345       .  S
O547       C1526   1.267   1_455  A
O549        C559   1.271       .  A
C550        C673   1.487       .  S
C550       O1523   1.267       .  A
C550        O563   1.272       .  A
O551        C558   1.270   1_655  A
O551      Tb1516   2.334       .  S
C552        O561   1.260       .  A
C553        C616   1.487       .  S
C553        O555   1.261       .  A
O556        C559   1.270   1_655  A
O556      Tb1516   2.326       .  S
O557        C558   1.273       .  A
C558        C568   1.479       .  S
C559        C580   1.477       .  S
C560        C661   1.484       .  S
O564      Tb1516   2.350   1_455  S
C565       C1054   1.407   1_455  A
C565        C570   1.413       .  A
C566       C1053   1.407       .  A
C566       C1543   1.399       .  A
C566        H571   1.083       .  S
C567       C1542   1.399       .  A
C567       O1548   1.371       .  S
C568        C569   1.404       .  A
C569        C570   1.396       .  A
C569        H573   1.084       .  S
C570        O574   1.372       .  S
O572       C1543   1.371       .  S
O572        H576   0.992       .  S
O574        H575   0.992       .  S
C577        C578   1.404       .  A
C577       C1558   1.410   1_455  A
C578        C579   1.397       .  A
C578        H583   1.084       .  S
C579        C580   1.412       .  A
C579        O584   1.372       .  S
C580       C1557   1.404   1_455  A
C581       C1556   1.404       .  A
C581        C582   1.397       .  A
C582       C1553   1.410       .  A
O584        H588   0.992       .  S
O586        H587   0.992       .  S
C589        C590   1.402       .  A
C589        C594   1.411       .  A
C590        C591   1.401       .  A
C590        H595   1.083       .  S
C591        C592   1.416       .  A
C591        O596   1.372       .  S
C592        C593   1.405       .  A
C593        C594   1.400       .  A
C593        H597   1.083       .  S
C594        O598   1.369       .  S
O596        H600   0.991       .  S
O598        H599   0.991       .  S
C601        C602   1.403       .  A
C601        C606   1.413       .  A
C603        O608   1.372       .  S
C604        C605   1.401       .  A
C605        C606   1.396       .  A
C605        H609   1.084       .  S
C606        O610   1.372       .  S
O608        H612   0.991       .  S
O610        H611   0.992       .  S
C613        C614   1.406       .  A
C613        C618   1.414       .  A
C614        C615   1.400       .  A
C614        H619   1.083       .  S
C615        C616   1.409       .  A
C615        O620   1.371       .  S
C616        C617   1.407       .  A
C617        C618   1.406       .  A
C618        O622   1.372       .  S
O620        H624   0.992       .  S
C625        C626   1.406       .  A
C625        C630   1.416       .  A
C626        C627   1.396       .  A
C626        H631   1.083       .  S
C627        C628   1.410       .  A
C627        O632   1.370       .  S
C628        C629   1.403       .  A
C629        C630   1.403       .  A
C629        H633   1.083       .  S
C630        O634   1.371       .  S
O632        H636   0.991       .  S
O634        H635   0.992       .  S
C637        C638   1.405       .  A
C637        C642   1.413       .  A
C638        C639   1.396       .  A
C638        H643   1.083       .  S
C639        C640   1.408       .  A
C639        O644   1.371       .  S
C641        H645   1.084       .  S
C642        O646   1.371       .  S
O644        H648   0.992       .  S
C649        C650   1.404       .  A
C649        C654   1.411       .  A
C650        C651   1.399       .  A
C650        H655   1.084       .  S
C651        C652   1.413       .  A
C651        O656   1.372       .  S
C652        C653   1.404       .  A
C653        C654   1.402       .  A
C653        H657   1.084       .  S
C654        O658   1.371   1_565  S
O656        H660   0.992       .  S
O658        H659   0.992       .  S
C661        C662   1.403       .  A
C661        C666   1.411       .  A
C662        C663   1.396       .  A
C662        H667   1.082       .  S
C663        C664   1.410       .  A
C663        O668   1.372       .  S
C664        C665   1.407       .  A
C665        C666   1.408       .  A
C665        H669   1.083       .  S
O668        H672   0.991       .  S
O670        H671   0.992       .  S
C673        C674   1.402       .  A
C673        C678   1.413       .  A
C674        C675   1.394       .  A
C674        H679   1.082       .  S
C675        C676   1.412       .  A
C675        O680   1.368       .  S
C676        C677   1.407       .  A
C677        C678   1.406       .  A
C677        H681   1.083       .  S
C678        O682   1.371       .  S
O680        H684   0.992       .  S
O682        H683   0.991       .  S
C685        C686   1.406       .  A
C685        C690   1.415       .  A
C686        C687   1.402       .  A
C686        H691   1.083       .  S
C687        C688   1.411       .  A
C687        O692   1.371       .  S
C688        C689   1.399       .  A
C689        C690   1.396       .  A
C689        H693   1.084       .  S
C690        O694   1.369       .  S
O692        H696   0.992       .  S
O694        H695   0.991       .  S
C697        C942   1.407   1_554  A
C697        C702   1.412       .  A
C698        C941   1.408       .  A
C698        C699   1.403       .  A
C698        H703   1.083       .  S
C699        C944   1.407       .  A
C700        C943   1.409   1_554  A
C700        C701   1.400       .  A
C701        C702   1.394       .  A
C701        H705   1.084       .  S
C702        O706   1.371       .  S
O704        H708   0.992       .  S
O706        H707   0.992       .  S
C709        C710   1.402       .  A
C709        C714   1.410       .  A
C710        C711   1.403       .  A
C710        H715   1.084       .  S
C711        C712   1.417       .  A
C711        O716   1.372   1_554  S
C712        C713   1.404       .  A
C713        C714   1.396       .  A
C713        H717   1.083       .  S
C714        O718   1.369       .  S
O716        H720   0.991   1_556  S
O718        H719   0.992   1_554  S
C721        C722   1.409       .  A
C721        C726   1.413   1_554  A
C722        C723   1.402       .  A
C722        H727   1.083       .  S
C723        C724   1.409       .  A
C723        O728   1.372       .  S
C724        C725   1.404       .  A
C725        C726   1.401   1_554  A
C725        H729   1.084   1_554  S
C726        O974   1.372       .  S
O728        H732   0.992       .  S
O730        C970   1.372       .  S
O730        H731   0.992       .  S
C733        N734   1.359       .  A
C733        N738   1.356       .  A
C733        C941   1.486       .  S
N734        C735   1.361       .  A
C735        N736   1.362       .  A
C735        C965   1.492       .  S
N736        C737   1.363       .  A
C737        N738   1.355       .  A
C737        C956   1.493       .  S
C739        N740   1.361       .  A
C739        N744   1.361       .  A
C739        C908   1.486       .  S
N740        C741   1.363       .  A
C741        N742   1.358       .  A
C741        C929   1.488       .  S
N742        C743   1.357       .  A
C743        N744   1.358       .  A
C743        C920   1.491       .  S
C745        N746   1.358       .  A
C745        N750   1.358       .  A
C745        C896   1.484       .  S
N746        C747   1.359       .  A
C747        N748   1.360       .  A
C747        C881   1.486       .  S
N748        C749   1.358       .  A
C749        N750   1.359       .  A
C749        C869   1.492       .  S
C751        N752   1.363       .  A
C751        N756   1.361       .  A
C751        C857   1.492       .  S
N752        C753   1.361       .  A
C753        N754   1.355       .  A
C753        C836   1.491       .  S
N754        C755   1.354       .  A
C755        N756   1.359       .  A
C755        C845   1.480       .  S
C757        C968   1.485       .  S
C757        O772   1.260       .  A
C757        O759   1.261       .  A
Tb758      O1750   2.330       .  S
Tb758      O1745   2.331       .  S
Tb758       O762   2.332       .  S
Tb758      O1758   2.345       .  S
Tb758       O779   2.371       .  S
O759       Tb763   2.365       .  S
O760        C771   1.260   1_545  A
C761        C872   1.484       .  S
C761        O766   1.271       .  A
C761        O782   1.269       .  A
O762        C778   1.259       .  A
Tb763       O772   2.361       .  S
Tb763       O766   2.348       .  S
Tb763       O775   2.347       .  S
O765       C1744   1.270   1_455  A
O767        C777   1.272   1_554  A
C768        C953   1.483       .  S
C768       O1741   1.270       .  A
C768        O781   1.270       .  A
O769        C776   1.269       .  A
O769      Tb1734   2.331   1_455  S
C770        O779   1.261       .  A
C771        C893   1.481       .  S
C771        O773   1.259       .  A
O774      Tb1734   2.330       .  S
O775        C776   1.271       .  A
C776        C821   1.478       .  S
C777        C809   1.484       .  S
C778        C944   1.470       .  S
O782      Tb1734   2.345   1_455  S
C783        C932   1.478       .  S
C783        O798   1.259       .  A
C783        O785   1.261       .  A
Tb784      O1776   2.324       .  S
Tb784      O1771   2.335       .  S
Tb784       O788   2.341       .  S
Tb784      O1784   2.351       .  S
Tb784       O805   2.346       .  S
O785       Tb789   2.351       .  S
O786        C797   1.259   1_545  A
C787        C833   1.482       .  S
C787        O792   1.270       .  A
C787        O808   1.270       .  A
O788        C804   1.259       .  A
Tb789       O793   2.346       .  S
Tb789       O798   2.355       .  S
Tb789       O792   2.343       .  S
Tb789       O801   2.345       .  S
O791       C1770   1.267   1_455  A
O793        C803   1.271       .  A
C794        C917   1.488       .  S
C794       O1767   1.267       .  A
C794        O807   1.271       .  A
O795        C802   1.271   1_655  A
O795      Tb1760   2.335       .  S
C796        O805   1.260       .  A
C797        C860   1.487       .  S
C797        O799   1.260       .  A
O800        C803   1.269   1_655  A
O800      Tb1760   2.324       .  S
O801        C802   1.273       .  A
C802        C812   1.479       .  S
C803        C824   1.474       .  S
C804        C905   1.485       .  S
O808      Tb1760   2.350   1_455  S
C809       C1298   1.407   1_455  A
C809        C814   1.413       .  A
C810       C1297   1.407       .  A
C810       C1787   1.400       .  A
C810        H815   1.083       .  S
C811       C1786   1.400       .  A
C811       O1792   1.371       .  S
C812        C813   1.404       .  A
C813        C814   1.396       .  A
C813        H817   1.084       .  S
C814        O818   1.372       .  S
O816       C1787   1.371       .  S
O816        H820   0.992       .  S
O818        H819   0.992       .  S
C821        C822   1.405       .  A
C821       C1802   1.410   1_455  A
C822        C823   1.397       .  A
C822        H827   1.084       .  S
C823        C824   1.410       .  A
C823        O828   1.372       .  S
C824       C1801   1.403   1_455  A
C825       C1800   1.403       .  A
C825        C826   1.397       .  A
C826       C1797   1.410       .  A
O828        H832   0.992       .  S
O830        H831   0.992   1_545  S
C833        C834   1.401       .  A
C833        C838   1.411       .  A
C834        C835   1.400       .  A
C834        H839   1.083       .  S
C835        C836   1.417       .  A
C835        O840   1.372       .  S
C836        C837   1.406       .  A
C837        C838   1.400       .  A
C837        H841   1.083       .  S
C838        O842   1.369       .  S
O840        H844   0.991       .  S
O842        H843   0.991       .  S
C845        C846   1.403       .  A
C845        C850   1.414       .  A
C847        O852   1.372       .  S
C848        C849   1.401       .  A
C849        C850   1.396       .  A
C849        H853   1.084       .  S
C850        O854   1.371       .  S
O852        H856   0.991       .  S
O854        H855   0.992       .  S
C857        C858   1.406       .  A
C857        C862   1.414       .  A
C858        C859   1.400       .  A
C858        H863   1.083       .  S
C859        C860   1.409       .  A
C859        O864   1.371       .  S
C860        C861   1.406       .  A
C861        C862   1.405       .  A
C862        O866   1.372       .  S
O864        H868   0.992       .  S
C869        C870   1.406       .  A
C869        C874   1.416       .  A
C870        C871   1.397       .  A
C870        H875   1.083       .  S
C871        C872   1.410       .  A
C871        O876   1.371       .  S
C872        C873   1.403       .  A
C873        C874   1.403       .  A
C873        H877   1.083       .  S
C874        O878   1.371       .  S
O876        H880   0.991       .  S
O878        H879   0.992       .  S
C881        C882   1.405       .  A
C881        C886   1.413       .  A
C882        C883   1.397       .  A
C882        H887   1.083       .  S
C883        C884   1.409       .  A
C883        O888   1.370       .  S
C885        H889   1.083       .  S
C886        O890   1.371       .  S
O888        H892   0.992       .  S
C893        C894   1.403       .  A
C893        C898   1.411       .  A
C894        C895   1.399       .  A
C894        H899   1.084       .  S
C895        C896   1.412       .  A
C895        O900   1.372       .  S
C896        C897   1.405       .  A
C897        C898   1.402       .  A
C897        H901   1.084       .  S
C898        O902   1.372   1_565  S
O900        H904   0.992       .  S
O902        H903   0.992       .  S
C905        C906   1.403       .  A
C905        C910   1.412       .  A
C906        C907   1.396       .  A
C906        H911   1.082       .  S
C907        C908   1.410       .  A
C907        O912   1.372       .  S
C908        C909   1.407       .  A
C909        C910   1.408       .  A
C909        H913   1.084       .  S
O912        H916   0.992       .  S
O914        H915   0.992       .  S
C917        C918   1.402       .  A
C917        C922   1.413       .  A
C918        C919   1.394       .  A
C918        H923   1.082       .  S
C919        C920   1.412       .  A
C919        O924   1.369       .  S
C920        C921   1.408       .  A
C921        C922   1.406       .  A
C921        H925   1.083       .  S
C922        O926   1.371       .  S
O924        H928   0.992       .  S
O926        H927   0.991       .  S
C929        C930   1.406       .  A
C929        C934   1.415       .  A
C930        C931   1.403       .  A
C930        H935   1.083       .  S
C931        C932   1.411       .  A
C931        O936   1.371       .  S
C932        C933   1.399       .  A
C933        C934   1.395       .  A
C933        H937   1.084       .  S
C934        O938   1.369       .  S
O936        H940   0.992       .  S
O938        H939   0.991       .  S
C941        C946   1.414       .  A
C942        C943   1.404       .  A
C942        H947   1.084       .  S
C944        C945   1.398       .  A
C945        C946   1.394       .  A
C945        H949   1.084       .  S
C946        O950   1.370       .  S
O948        H952   0.992       .  S
O950        H951   0.993       .  S
C953        C954   1.401       .  A
C953        C958   1.409       .  A
C954        C955   1.404       .  A
C954        H959   1.083       .  S
C955        C956   1.418       .  A
C955        O960   1.372       .  S
C956        C957   1.404       .  A
C957        C958   1.397       .  A
C957        H961   1.083       .  S
C958        O962   1.369       .  S
O960        H964   0.991       .  S
O962        H963   0.992       .  S
C965        C966   1.408       .  A
C965        C970   1.413       .  A
C966        C967   1.403       .  A
C966        H971   1.083       .  S
C967        C968   1.410       .  A
C967        O972   1.371       .  S
C968        C969   1.405       .  A
C969        C970   1.403       .  A
C969        H973   1.084       .  S
O972        H976   0.992       .  S
O974        H975   0.992       .  S
C977        N978   1.359       .  A
C977        N982   1.356       .  A
C977       C1185   1.486       .  S
N978        C979   1.361       .  A
C979        N980   1.362       .  A
C979       C1209   1.492       .  S
N980        C981   1.363       .  A
C981        N982   1.355       .  A
C981       C1200   1.493       .  S
C983        N984   1.362       .  A
C983        N988   1.361       .  A
C983       C1152   1.486       .  S
N984        C985   1.363       .  A
C985        N986   1.358       .  A
C985       C1173   1.488       .  S
N986        C987   1.357       .  A
C987        N988   1.358       .  A
C987       C1164   1.491       .  S
C989        N990   1.358       .  A
C989        N994   1.358       .  A
C989       C1140   1.484       .  S
N990        C991   1.359       .  A
C991        N992   1.360       .  A
C991       C1125   1.486       .  S
N992        C993   1.358       .  A
C993        N994   1.359       .  A
C993       C1113   1.492       .  S
C995        N996   1.363       .  A
C995       N1000   1.361       .  A
C995       C1101   1.492       .  S
N996        C997   1.361       .  A
C997        N998   1.355       .  A
C997       C1080   1.491       .  S
N998        C999   1.354       .  A
C999       N1000   1.359       .  A
C999       C1089   1.480       .  S
C1001      C1212   1.485       .  S
C1001      O1016   1.260       .  A
C1001      O1003   1.261       .  A
Tb1002     O1512   2.365       .  S
Tb1002     O1513   2.346   1_545  S
Tb1002     O1496   2.344   1_545  S
Tb1002     O1006   2.332       .  S
Tb1002     O1023   2.371       .  S
O1003     Tb1007   2.365       .  S
O1004      C1015   1.260       .  A
O1004     Tb1495   2.364       .  S
C1005      C1116   1.484       .  S
C1005      O1010   1.271       .  A
C1005      O1026   1.269       .  A
O1006      C1022   1.259       .  A
Tb1007     O1492   2.364       .  S
Tb1007     O1255   2.343       .  S
Tb1007     O1016   2.361       .  S
Tb1007     O1010   2.348       .  S
Tb1007     O1505   2.356   1_545  S
Tb1007     O1019   2.347       .  S
Tb1007     O1497   2.342   1_545  S
O1008      C1502   1.257       .  A
O1008     Tb1490   2.344       .  S
O1009     Tb1495   2.343       .  S
O1011      C1021   1.272       .  A
O1011     Tb1251   2.346       .  S
C1012      C1197   1.483       .  S
C1012      O1025   1.270       .  A
O1013      C1020   1.269       .  A
C1014      C1616   1.480       .  S
C1014      O1496   1.257       .  A
C1014      O1023   1.261   1_565  A
C1015      C1137   1.481       .  S
C1015      O1017   1.259       .  A
O1017     Tb1495   2.355       .  S
O1018      C1265   1.271       .  A
O1019      C1020   1.271       .  A
C1020      C1065   1.478       .  S
C1021      C1053   1.484       .  S
C1021      O1262   1.270       .  A
C1022      C1188   1.470       .  S
C1022      O1512   1.262       .  A
O1024      C1510   1.262       .  A
O1024     Tb1490   2.367       .  S
O1025     Tb1490   2.346       .  S
C1027      C1176   1.478       .  S
C1027      O1042   1.259       .  A
C1027      O1029   1.262       .  A
Tb1028     O1538   2.379       .  S
Tb1028     O1539   2.353   1_545  S
Tb1028     O1522   2.345   1_545  S
Tb1028     O1032   2.342       .  S
Tb1028     O1049   2.346       .  S
O1029     Tb1033   2.351       .  S
O1030      C1041   1.259       .  A
O1030     Tb1521   2.370       .  S
C1031      C1077   1.482       .  S
C1031      O1036   1.270       .  A
C1031      O1052   1.270       .  A
O1032      C1048   1.259       .  A
Tb1033     O1518   2.369       .  S
Tb1033     O1037   2.346       .  S
Tb1033     O1042   2.355       .  S
Tb1033     O1036   2.343       .  S
Tb1033     O1531   2.362   1_545  S
Tb1033     O1045   2.346       .  S
Tb1033     O1523   2.337   1_545  S
O1034      C1528   1.262       .  A
O1034     Tb1516   2.346       .  S
O1035     Tb1521   2.339       .  S
O1037      C1047   1.271       .  A
C1038      C1161   1.488       .  S
C1038      O1051   1.271       .  A
O1039      C1046   1.271       .  A
C1040      C1580   1.473       .  S
C1040      O1522   1.261       .  A
C1040      O1049   1.260   1_565  A
C1041      C1104   1.487       .  S
C1041      O1043   1.260       .  A
O1043     Tb1521   2.361       .  S
O1044      C1047   1.269   1_565  A
O1045      C1046   1.273       .  A
C1046      C1056   1.479       .  S
C1047      C1068   1.474       .  S
C1048      C1149   1.485       .  S
C1048      O1538   1.263       .  A
O1050      C1536   1.263       .  A
O1050     Tb1516   2.376       .  S
O1051     Tb1516   2.353       .  S
C1053      C1058   1.413       .  A
C1054      H1059   1.083       .  S
C1055      C1544   1.410       .  A
C1056      C1543   1.410       .  A
C1056      C1057   1.404       .  A
C1057      C1058   1.396       .  A
C1057      H1061   1.084       .  S
C1058      O1062   1.372       .  S
O1060      H1064   0.992       .  S
O1062      H1063   0.992       .  S
C1065      C1066   1.405       .  A
C1066      C1067   1.397       .  A
C1066      H1071   1.084       .  S
C1067      C1068   1.410       .  A
C1067      O1072   1.372       .  S
C1069      C1070   1.397       .  A
C1069      H1561   1.084       .  S
C1070      O1562   1.370       .  S
O1072      H1076   0.992   1_545  S
H1073      C1557   1.084       .  S
O1074      C1558   1.370       .  S
O1074      H1075   0.992       .  S
C1077      C1078   1.401       .  A
C1077      C1082   1.411       .  A
C1078      C1079   1.400       .  A
C1078      H1083   1.083       .  S
C1079      C1080   1.417       .  A
C1079      O1084   1.372       .  S
C1080      C1081   1.406       .  A
C1081      C1082   1.400       .  A
C1081      H1085   1.083       .  S
C1082      O1086   1.369       .  S
O1084      H1088   0.991       .  S
O1086      H1087   0.991       .  S
C1089      C1090   1.403       .  A
C1089      C1094   1.414       .  A
C1090      C1579   1.400       .  A
C1090      H1583   1.084       .  S
C1091      C1578   1.400       .  A
C1091      C1580   1.410       .  A
C1091      O1096   1.372   1_565  S
C1092      C1528   1.473       .  S
C1092      C1579   1.410       .  A
C1092      C1093   1.401       .  A
C1093      C1094   1.396       .  A
C1093      H1097   1.084       .  S
C1094      O1098   1.371       .  S
H1095      C1578   1.084       .  S
O1096      H1100   0.991       .  S
O1098      H1099   0.992       .  S
C1101      C1102   1.406       .  A
C1101      C1106   1.414       .  A
C1102      C1103   1.400       .  A
C1102      H1107   1.083       .  S
C1103      C1104   1.409       .  A
C1103      O1108   1.371       .  S
C1104      C1105   1.406       .  A
C1105      C1106   1.406       .  A
C1105      H1597   1.084       .  S
C1106      O1110   1.372       .  S
O1108      H1112   0.992       .  S
H1109      C1593   1.084   1_545  S
O1110      H1599   0.992       .  S
H1111      O1598   0.992       .  S
C1113      C1114   1.406       .  A
C1113      C1118   1.416       .  A
C1114      C1115   1.397       .  A
C1114      H1119   1.083       .  S
C1115      C1116   1.410       .  A
C1115      O1120   1.371       .  S
C1116      C1117   1.403       .  A
C1117      C1118   1.403       .  A
C1117      H1121   1.083       .  S
C1118      O1122   1.371       .  S
O1120      H1124   0.991       .  S
O1122      H1123   0.992       .  S
C1125      C1126   1.405       .  A
C1125      C1130   1.413       .  A
C1126      C1127   1.397       .  A
C1126      H1131   1.083       .  S
C1127      C1128   1.409       .  A
C1127      O1132   1.370       .  S
C1128      C1502   1.480       .  S
C1128      C1617   1.404       .  A
C1129      C1616   1.405       .  A
C1129      C1618   1.404       .  A
C1129      H1133   1.083   1_565  S
C1130      C1617   1.402       .  A
C1130      O1134   1.371       .  S
O1132      H1136   0.992       .  S
O1134      H1623   0.993       .  S
H1135      O1622   0.993   1_545  S
C1137      C1138   1.403       .  A
C1137      C1142   1.411       .  A
C1138      C1139   1.399       .  A
C1138      H1143   1.084       .  S
C1139      C1140   1.412       .  A
C1139      O1144   1.372       .  S
C1140      C1141   1.405       .  A
C1141      C1142   1.402       .  A
C1141      H1145   1.084       .  S
C1142      O1146   1.372       .  S
O1144      H1148   0.992       .  S
O1146      H1147   0.992       .  S
C1149      C1150   1.403       .  A
C1149      C1154   1.412       .  A
C1150      C1151   1.396       .  A
C1150      H1155   1.082       .  S
C1151      C1152   1.410       .  A
C1151      O1156   1.372       .  S
C1152      C1153   1.407       .  A
C1153      C1154   1.408       .  A
C1153      H1157   1.084       .  S
C1154      O1646   1.371       .  S
O1156      H1160   0.992       .  S
O1158      C1642   1.371       .  S
O1158      H1159   0.992       .  S
C1161      C1162   1.402       .  A
C1161      C1166   1.413       .  A
C1162      C1163   1.394       .  A
C1162      H1167   1.082       .  S
C1163      C1164   1.412       .  A
C1163      O1168   1.369       .  S
C1164      C1165   1.408       .  A
C1165      C1166   1.406       .  A
C1165      H1169   1.083       .  S
C1166      O1170   1.371       .  S
O1168      H1172   0.992       .  S
O1170      H1171   0.991   1_655  S
C1173      C1174   1.406       .  A
C1173      C1178   1.415       .  A
C1174      C1175   1.403       .  A
C1174      H1179   1.083       .  S
C1175      C1176   1.411       .  A
C1175      O1180   1.371       .  S
C1176      C1177   1.399       .  A
C1177      C1178   1.395       .  A
C1177      H1181   1.084       .  S
C1178      O1182   1.369       .  S
O1180      H1184   0.992       .  S
O1182      H1183   0.991       .  S
C1185      C1430   1.408   1_554  A
C1185      C1190   1.414       .  A
C1186      C1429   1.407       .  A
C1186      C1187   1.404       .  A
C1186      H1191   1.084       .  S
C1187      C1432   1.409       .  A
C1187      O1680   1.371       .  S
C1188      C1431   1.407       .  A
C1188      C1189   1.398       .  A
C1189      C1190   1.394       .  A
C1189      H1193   1.084       .  S
C1190      O1194   1.370       .  S
O1192      C1675   1.371       .  S
O1192      H1196   0.992       .  S
O1194      H1195   0.993       .  S
C1197      C1198   1.401       .  A
C1197      C1202   1.409       .  A
C1198      C1199   1.404       .  A
C1198      H1203   1.083   1_655  S
C1199      C1200   1.418       .  A
C1199      O1204   1.372   1_554  S
C1200      C1201   1.404       .  A
C1201      C1202   1.397       .  A
C1201      H1205   1.083       .  S
C1202      O1206   1.369       .  S
O1204      H1208   0.991   1_556  S
O1206      H1207   0.992   1_554  S
C1209      C1210   1.408       .  A
C1209      C1214   1.413   1_554  A
C1210      C1211   1.403       .  A
C1210      H1215   1.083       .  S
C1211      C1212   1.410       .  A
C1211      O1216   1.371       .  S
C1212      C1213   1.405       .  A
C1213      C1214   1.403   1_554  A
C1213      H1217   1.084   1_554  S
C1214      O1462   1.372       .  S
O1216      H1220   0.992       .  S
O1218      C1458   1.372       .  S
O1218      H1219   0.992       .  S
C1221      N1222   1.359       .  A
C1221      N1226   1.356       .  A
C1221      C1429   1.482       .  S
N1222      C1223   1.361       .  A
C1223      N1224   1.361       .  A
C1223      C1453   1.491       .  S
N1224      C1225   1.361       .  A
C1225      N1226   1.355       .  A
C1225      C1444   1.490       .  S
C1227      N1228   1.361       .  A
C1227      N1232   1.361       .  A
C1227      C1396   1.485       .  S
N1228      C1229   1.363       .  A
C1229      N1230   1.358       .  A
C1229      C1417   1.488       .  S
N1230      C1231   1.357       .  A
C1231      N1232   1.358       .  A
C1231      C1408   1.490       .  S
C1233      N1234   1.360       .  A
C1233      N1238   1.357       .  A
C1233      C1384   1.483       .  S
N1234      C1235   1.360       .  A
C1235      N1236   1.360       .  A
C1235      C1369   1.486       .  S
N1236      C1237   1.357       .  A
C1237      N1238   1.358       .  A
C1237      C1357   1.491       .  S
C1239      N1240   1.363       .  A
C1239      N1244   1.361       .  A
C1239      C1345   1.492       .  S
N1240      C1241   1.361       .  A
C1241      N1242   1.355       .  A
C1241      C1324   1.491       .  S
N1242      C1243   1.355       .  A
C1243      N1244   1.359       .  A
C1243      C1333   1.479       .  S
C1245      C1456   1.482       .  S
C1245      O1260   1.260       .  A
C1245      O1247   1.261       .  A
Tb1246     O1756   2.367       .  S
Tb1246     O1757   2.346   1_545  S
Tb1246     O1740   2.344   1_545  S
Tb1246     O1250   2.334       .  S
Tb1246     O1267   2.370       .  S
O1247     Tb1251   2.363       .  S
O1248      C1259   1.260       .  A
O1248     Tb1739   2.364       .  S
C1249      C1360   1.482       .  S
C1249      O1254   1.270       .  A
C1249      O1270   1.269       .  A
O1250      C1266   1.259       .  A
Tb1251     O1736   2.364       .  S
Tb1251     O1260   2.357       .  S
Tb1251     O1254   2.346       .  S
Tb1251     O1749   2.355   1_545  S
Tb1251     O1263   2.347       .  S
Tb1251     O1741   2.343   1_545  S
O1252      C1746   1.257       .  A
O1252     Tb1734   2.344       .  S
O1253     Tb1739   2.342       .  S
O1255      C1265   1.272   1_554  A
C1256      C1441   1.483       .  S
C1256      O1269   1.270       .  A
O1257      C1264   1.269       .  A
C1258      C1860   1.480       .  S
C1258      O1740   1.257       .  A
C1258      O1267   1.261   1_565  A
C1259      C1381   1.482       .  S
C1259      O1261   1.260       .  A
O1261     Tb1739   2.356       .  S
O1263      C1264   1.271       .  A
C1264      C1309   1.477       .  S
C1265      C1297   1.484       .  S
C1266      C1432   1.474       .  S
C1266      O1756   1.262       .  A
O1268      C1754   1.262       .  A
O1268     Tb1734   2.364       .  S
O1269     Tb1734   2.345       .  S
C1271      C1420   1.478       .  S
C1271      O1286   1.259       .  A
C1271      O1273   1.262       .  A
Tb1272     O1782   2.376       .  S
Tb1272     O1783   2.353   1_545  S
Tb1272     O1766   2.346   1_545  S
Tb1272     O1276   2.341       .  S
Tb1272     O1293   2.345       .  S
O1273     Tb1277   2.352       .  S
O1274      C1285   1.259       .  A
O1274     Tb1765   2.369       .  S
C1275      C1321   1.485       .  S
C1275      O1280   1.271       .  A
C1275      O1296   1.270       .  A
O1276      C1292   1.259       .  A
Tb1277     O1762   2.370       .  S
Tb1277     O1281   2.345       .  S
Tb1277     O1286   2.353       .  S
Tb1277     O1280   2.347       .  S
Tb1277     O1775   2.361   1_545  S
Tb1277     O1289   2.346       .  S
Tb1277     O1767   2.339   1_545  S
O1278      C1772   1.262       .  A
O1278     Tb1760   2.345       .  S
O1279     Tb1765   2.337       .  S
O1281      C1291   1.271       .  A
C1282      C1405   1.487       .  S
C1282      O1295   1.272       .  A
O1283      C1290   1.270       .  A
C1284      C1824   1.473       .  S
C1284      O1766   1.262       .  A
C1284      O1293   1.260   1_565  A
C1285      C1348   1.487       .  S
C1285      O1287   1.261       .  A
O1287     Tb1765   2.362       .  S
O1288      C1291   1.270   1_565  A
O1289      C1290   1.273       .  A
C1290      C1300   1.479       .  S
C1291      C1312   1.478       .  S
C1292      C1393   1.484       .  S
C1292      O1782   1.263       .  A
O1294      C1780   1.263       .  A
O1294     Tb1760   2.379       .  S
O1295     Tb1760   2.353       .  S
C1297      C1302   1.413       .  A
C1298      H1303   1.083       .  S
C1299      C1788   1.410       .  A
C1300      C1787   1.410       .  A
C1300      C1301   1.404       .  A
C1301      C1302   1.396       .  A
C1301      H1305   1.084       .  S
C1302      O1306   1.372       .  S
O1304      H1308   0.992       .  S
O1306      H1307   0.992       .  S
C1309      C1310   1.404       .  A
C1310      C1311   1.397       .  A
C1310      H1315   1.084       .  S
C1311      C1312   1.412       .  A
C1311      O1316   1.372       .  S
C1313      C1314   1.397       .  A
C1313      H1805   1.084       .  S
C1314      O1806   1.370       .  S
O1316      H1320   0.992   1_545  S
H1317      C1801   1.084       .  S
O1318      C1802   1.370       .  S
O1318      H1319   0.992       .  S
C1321      C1322   1.402       .  A
C1321      C1326   1.411       .  A
C1322      C1323   1.401       .  A
C1322      H1327   1.083       .  S
C1323      C1324   1.416       .  A
C1323      O1328   1.372       .  S
C1324      C1325   1.405       .  A
C1325      C1326   1.400       .  A
C1325      H1329   1.083       .  S
C1326      O1330   1.369       .  S
O1328      H1332   0.991       .  S
O1330      H1331   0.991       .  S
C1333      C1334   1.403       .  A
C1333      C1338   1.413       .  A
C1334      C1823   1.400       .  A
C1334      H1827   1.084       .  S
C1335      C1822   1.400       .  A
C1335      C1824   1.410       .  A
C1335      O1340   1.372   1_565  S
C1336      C1772   1.473       .  S
C1336      C1823   1.410       .  A
C1336      C1337   1.401       .  A
C1337      C1338   1.396       .  A
C1337      H1341   1.084       .  S
C1338      O1342   1.372       .  S
H1339      C1822   1.084       .  S
O1340      H1344   0.991       .  S
O1342      H1343   0.992       .  S
C1345      C1346   1.406       .  A
C1345      C1350   1.414       .  A
C1346      C1347   1.400       .  A
C1346      H1351   1.083       .  S
C1347      C1348   1.409       .  A
C1347      O1352   1.371       .  S
C1348      C1349   1.407       .  A
C1349      C1350   1.406       .  A
C1349      H1841   1.084       .  S
C1350      O1354   1.372       .  S
O1352      H1356   0.992       .  S
H1353      C1837   1.084   1_545  S
O1354      H1843   0.992       .  S
H1355      O1842   0.992       .  S
C1357      C1358   1.406       .  A
C1357      C1362   1.416       .  A
C1358      C1359   1.396       .  A
C1358      H1363   1.083       .  S
C1359      C1360   1.410       .  A
C1359      O1364   1.370       .  S
C1360      C1361   1.403       .  A
C1361      C1362   1.403       .  A
C1361      H1365   1.083       .  S
C1362      O1366   1.371       .  S
O1364      H1368   0.991       .  S
O1366      H1367   0.992       .  S
C1369      C1370   1.405       .  A
C1369      C1374   1.413       .  A
C1370      C1371   1.396       .  A
C1370      H1375   1.083       .  S
C1371      C1372   1.408       .  A
C1371      O1376   1.371       .  S
C1372      C1746   1.480       .  S
C1372      C1861   1.405       .  A
C1373      C1860   1.404       .  A
C1373      C1862   1.402       .  A
C1373      H1377   1.084   1_565  S
C1374      C1861   1.404       .  A
C1374      O1378   1.371       .  S
O1376      H1380   0.992       .  S
O1378      H1867   0.993       .  S
H1379      O1866   0.993       .  S
C1381      C1382   1.404       .  A
C1381      C1386   1.411       .  A
C1382      C1383   1.399       .  A
C1382      H1387   1.084       .  S
C1383      C1384   1.413       .  A
C1383      O1388   1.372       .  S
C1384      C1385   1.404       .  A
C1385      C1386   1.402       .  A
C1385      H1389   1.084       .  S
C1386      O1390   1.371       .  S
O1388      H1392   0.992       .  S
O1390      H1391   0.992       .  S
C1393      C1394   1.403       .  A
C1393      C1398   1.411       .  A
C1394      C1395   1.396       .  A
C1394      H1399   1.082       .  S
C1395      C1396   1.410       .  A
C1395      O1400   1.372       .  S
C1396      C1397   1.407       .  A
C1397      C1398   1.408       .  A
C1397      H1401   1.083       .  S
C1398      O1890   1.371       .  S
O1400      H1404   0.992       .  S
O1402      C1886   1.371       .  S
O1402      H1403   0.992       .  S
C1405      C1406   1.402       .  A
C1405      C1410   1.413       .  A
C1406      C1407   1.394       .  A
C1406      H1411   1.082       .  S
C1407      C1408   1.412       .  A
C1407      O1412   1.368       .  S
C1408      C1409   1.407       .  A
C1409      C1410   1.406       .  A
C1409      H1413   1.083       .  S
C1410      O1414   1.371       .  S
O1412      H1416   0.992       .  S
O1414      H1415   0.991   1_655  S
C1417      C1418   1.406       .  A
C1417      C1422   1.415       .  A
C1418      C1419   1.402       .  A
C1418      H1423   1.083       .  S
C1419      C1420   1.411       .  A
C1419      O1424   1.371       .  S
C1420      C1421   1.399       .  A
C1421      C1422   1.396       .  A
C1421      H1425   1.084       .  S
C1422      O1426   1.369       .  S
O1424      H1428   0.992       .  S
O1426      H1427   0.991       .  S
C1429      C1434   1.412       .  A
C1430      C1431   1.403   1_556  A
C1430      H1435   1.083       .  S
C1431      O1924   1.371   1_554  S
C1432      C1433   1.400       .  A
C1433      C1434   1.394       .  A
C1433      H1437   1.084       .  S
C1434      O1438   1.371       .  S
O1436      C1919   1.371       .  S
O1436      H1440   0.992       .  S
O1438      H1439   0.992       .  S
C1441      C1442   1.402       .  A
C1441      C1446   1.410       .  A
C1442      C1443   1.403       .  A
C1442      H1447   1.084   1_655  S
C1443      C1444   1.417       .  A
C1443      O1448   1.372       .  S
C1444      C1445   1.404       .  A
C1445      C1446   1.396       .  A
C1445      H1449   1.083       .  S
C1446      O1450   1.369       .  S
O1448      H1452   0.991       .  S
O1450      H1451   0.992       .  S
C1453      C1454   1.409       .  A
C1453      C1458   1.413       .  A
C1454      C1455   1.402       .  A
C1454      H1459   1.083       .  S
C1455      C1456   1.409       .  A
C1455      O1460   1.372       .  S
C1456      C1457   1.404       .  A
C1457      C1458   1.401       .  A
C1457      H1461   1.084       .  S
O1460      H1464   0.992       .  S
O1462      H1463   0.992       .  S
C1465      N1466   1.359       .  A
C1465      N1470   1.356   1_556  A
C1465      C1673   1.482   1_556  S
N1466      C1467   1.361       .  A
C1467      N1468   1.361   1_556  A
C1467      C1697   1.491   1_556  S
N1468      C1469   1.361       .  A
C1469      N1470   1.355       .  A
C1469      C1688   1.490       .  S
C1471      N1472   1.361       .  A
C1471      N1476   1.361       .  A
C1471      C1640   1.485       .  S
N1472      C1473   1.363       .  A
C1473      N1474   1.358       .  A
C1473      C1661   1.488       .  S
N1474      C1475   1.357       .  A
C1475      N1476   1.358       .  A
C1475      C1652   1.490       .  S
C1477      N1478   1.360       .  A
C1477      N1482   1.357       .  A
C1477      C1628   1.483       .  S
N1478      C1479   1.360       .  A
C1479      N1480   1.360       .  A
C1479      C1613   1.486       .  S
N1480      C1481   1.357       .  A
C1481      N1482   1.358       .  A
C1481      C1601   1.491       .  S
C1483      N1484   1.363       .  A
C1483      N1488   1.360       .  A
C1483      C1589   1.492       .  S
N1484      C1485   1.361       .  A
C1485      N1486   1.355       .  A
C1485      C1568   1.491       .  S
N1486      C1487   1.355       .  A
C1487      N1488   1.359       .  A
C1487      C1577   1.479       .  S
C1489      C1700   1.482       .  S
C1489      O1504   1.259       .  A
C1489      O1491   1.261       .  A
Tb1490     O1494   2.334       .  S
Tb1490     O1511   2.370       .  S
O1491     Tb1495   2.363       .  S
O1492      C1503   1.260   1_545  A
C1493      C1604   1.482       .  S
C1493      O1498   1.270       .  A
C1493      O1514   1.269       .  A
O1494      C1510   1.259       .  A
Tb1495     O1743   2.346       .  S
Tb1495     O1504   2.357       .  S
Tb1495     O1498   2.346       .  S
Tb1495     O1507   2.347       .  S
O1499      C1509   1.272       .  A
O1499     Tb1739   2.344       .  S
C1500      C1685   1.483       .  S
C1500      O1513   1.270       .  A
O1501      C1508   1.269       .  A
C1502      O1511   1.261       .  A
C1503      C1625   1.481       .  S
C1503      O1505   1.260       .  A
O1506      C1753   1.270       .  A
O1507      C1508   1.271       .  A
C1508      C1553   1.477       .  S
C1509      C1541   1.484       .  S
C1509      O1750   1.271       .  A
C1510      C1676   1.474       .  S
C1515      C1664   1.478       .  S
C1515      O1530   1.259       .  A
C1515      O1517   1.262       .  A
Tb1516     O1520   2.341       .  S
Tb1516     O1537   2.346       .  S
O1517     Tb1521   2.352       .  S
O1518      C1529   1.259   1_545  A
C1519      C1565   1.485       .  S
C1519      O1524   1.271       .  A
C1519      O1540   1.270       .  A
O1520      C1536   1.259       .  A
Tb1521     O1525   2.344       .  S
Tb1521     O1530   2.353       .  S
Tb1521     O1524   2.346       .  S
Tb1521     O1533   2.346       .  S
O1525      C1535   1.271       .  A
C1526      C1649   1.487       .  S
C1526      O1539   1.272       .  A
O1527      C1534   1.270       .  A
C1528      O1537   1.260       .  A
C1529      C1592   1.487       .  S
C1529      O1531   1.261       .  A
O1532      C1535   1.270       .  A
O1533      C1534   1.273       .  A
C1534      C1544   1.479       .  S
C1535      C1556   1.477       .  S
C1536      C1637   1.484       .  S
C1541      C1546   1.413       .  A
C1542      H1547   1.083       .  S
C1544      C1545   1.404       .  A
C1545      C1546   1.396       .  A
C1545      H1549   1.084       .  S
C1546      O1550   1.372       .  S
O1548      H1552   0.992       .  S
O1550      H1551   0.992       .  S
C1553      C1554   1.404       .  A
C1554      C1555   1.397       .  A
C1554      H1559   1.084       .  S
C1555      C1556   1.412       .  A
C1555      O1560   1.372       .  S
C1557      C1558   1.397       .  A
O1560      H1564   0.992       .  S
O1562      H1563   0.992       .  S
C1565      C1566   1.402       .  A
C1565      C1570   1.411       .  A
C1566      C1567   1.401       .  A
C1566      H1571   1.083       .  S
C1567      C1568   1.416       .  A
C1567      O1572   1.372       .  S
C1568      C1569   1.405       .  A
C1569      C1570   1.400       .  A
C1569      H1573   1.083       .  S
C1570      O1574   1.369       .  S
O1572      H1576   0.991       .  S
O1574      H1575   0.991       .  S
C1577      C1578   1.403       .  A
C1577      C1582   1.413       .  A
C1579      O1584   1.372       .  S
C1580      C1581   1.401       .  A
C1581      C1582   1.396       .  A
C1581      H1585   1.084       .  S
C1582      O1586   1.372       .  S
O1584      H1588   0.991       .  S
O1586      H1587   0.992       .  S
C1589      C1590   1.406       .  A
C1589      C1594   1.414       .  A
C1590      C1591   1.400       .  A
C1590      H1595   1.083       .  S
C1591      C1592   1.409       .  A
C1591      O1596   1.371       .  S
C1592      C1593   1.407       .  A
C1593      C1594   1.406       .  A
C1594      O1598   1.372       .  S
O1596      H1600   0.992       .  S
C1601      C1602   1.406       .  A
C1601      C1606   1.416       .  A
C1602      C1603   1.396       .  A
C1602      H1607   1.083       .  S
C1603      C1604   1.410       .  A
C1603      O1608   1.370       .  S
C1604      C1605   1.403       .  A
C1605      C1606   1.403       .  A
C1605      H1609   1.083       .  S
C1606      O1610   1.371       .  S
O1608      H1612   0.991       .  S
O1610      H1611   0.992       .  S
C1613      C1614   1.405       .  A
C1613      C1618   1.413       .  A
C1614      C1615   1.396       .  A
C1614      H1619   1.083       .  S
C1615      C1616   1.408       .  A
C1615      O1620   1.371       .  S
C1617      H1621   1.084       .  S
C1618      O1622   1.371       .  S
O1620      H1624   0.992       .  S
C1625      C1626   1.404       .  A
C1625      C1630   1.411       .  A
C1626      C1627   1.399       .  A
C1626      H1631   1.084       .  S
C1627      C1628   1.413       .  A
C1627      O1632   1.372       .  S
C1628      C1629   1.404       .  A
C1629      C1630   1.402       .  A
C1629      H1633   1.084       .  S
C1630      O1634   1.371   1_565  S
O1632      H1636   0.992       .  S
O1634      H1635   0.992       .  S
C1637      C1638   1.403       .  A
C1637      C1642   1.411       .  A
C1638      C1639   1.396       .  A
C1638      H1643   1.082       .  S
C1639      C1640   1.410       .  A
C1639      O1644   1.372       .  S
C1640      C1641   1.407       .  A
C1641      C1642   1.408       .  A
C1641      H1645   1.083       .  S
O1644      H1648   0.992       .  S
O1646      H1647   0.992       .  S
C1649      C1650   1.402       .  A
C1649      C1654   1.413       .  A
C1650      C1651   1.394       .  A
C1650      H1655   1.082       .  S
C1651      C1652   1.412       .  A
C1651      O1656   1.368       .  S
C1652      C1653   1.407       .  A
C1653      C1654   1.406       .  A
C1653      H1657   1.083       .  S
C1654      O1658   1.371       .  S
O1656      H1660   0.992       .  S
O1658      H1659   0.991   1_655  S
C1661      C1662   1.406       .  A
C1661      C1666   1.415       .  A
C1662      C1663   1.403       .  A
C1662      H1667   1.083       .  S
C1663      C1664   1.411       .  A
C1663      O1668   1.371       .  S
C1664      C1665   1.399       .  A
C1665      C1666   1.396       .  A
C1665      H1669   1.084       .  S
C1666      O1670   1.369       .  S
O1668      H1672   0.992       .  S
O1670      H1671   0.991       .  S
C1673      C1918   1.407   1_554  A
C1673      C1678   1.412       .  A
C1674      C1917   1.408       .  A
C1674      C1675   1.403       .  A
C1674      H1679   1.083       .  S
C1675      C1920   1.407       .  A
C1676      C1919   1.409   1_554  A
C1676      C1677   1.400       .  A
C1677      C1678   1.394       .  A
C1677      H1681   1.084       .  S
C1678      O1682   1.371       .  S
O1680      H1684   0.992       .  S
O1682      H1683   0.992       .  S
C1685      C1686   1.402       .  A
C1685      C1690   1.410       .  A
C1686      C1687   1.403       .  A
C1686      H1691   1.084   1_655  S
C1687      C1688   1.417       .  A
C1687      O1692   1.372   1_554  S
C1688      C1689   1.404       .  A
C1689      C1690   1.396       .  A
C1689      H1693   1.083       .  S
C1690      O1694   1.369       .  S
O1692      H1696   0.991   1_556  S
O1694      H1695   0.992   1_554  S
C1697      C1698   1.409       .  A
C1697      C1702   1.413   1_554  A
C1698      C1699   1.402       .  A
C1698      H1703   1.083       .  S
C1699      C1700   1.409       .  A
C1699      O1704   1.372       .  S
C1700      C1701   1.404       .  A
C1701      C1702   1.401   1_554  A
C1701      H1705   1.084   1_554  S
C1702      O1950   1.372       .  S
O1704      H1708   0.992       .  S
O1706      C1946   1.372       .  S
O1706      H1707   0.992       .  S
C1709      N1710   1.359       .  A
C1709      N1714   1.356       .  A
C1709      C1917   1.486       .  S
N1710      C1711   1.361       .  A
C1711      N1712   1.362       .  A
C1711      C1941   1.492       .  S
N1712      C1713   1.363       .  A
C1713      N1714   1.355       .  A
C1713      C1932   1.493       .  S
C1715      N1716   1.362       .  A
C1715      N1720   1.361       .  A
C1715      C1884   1.486       .  S
N1716      C1717   1.363       .  A
C1717      N1718   1.358       .  A
C1717      C1905   1.488       .  S
N1718      C1719   1.357       .  A
C1719      N1720   1.358       .  A
C1719      C1896   1.491       .  S
C1721      N1722   1.358       .  A
C1721      N1726   1.358       .  A
C1721      C1872   1.484       .  S
N1722      C1723   1.359       .  A
C1723      N1724   1.360       .  A
C1723      C1857   1.486       .  S
N1724      C1725   1.358       .  A
C1725      N1726   1.359       .  A
C1725      C1845   1.492       .  S
C1727      N1728   1.363       .  A
C1727      N1732   1.361       .  A
C1727      C1833   1.492       .  S
N1728      C1729   1.361       .  A
C1729      N1730   1.355       .  A
C1729      C1812   1.491       .  S
N1730      C1731   1.354       .  A
C1731      N1732   1.359       .  A
C1731      C1821   1.480       .  S
C1733      C1944   1.485       .  S
C1733      O1748   1.260       .  A
C1733      O1735   1.261       .  A
Tb1734     O1738   2.332       .  S
Tb1734     O1755   2.371       .  S
O1735     Tb1739   2.365       .  S
O1736      C1747   1.260   1_545  A
C1737      C1848   1.484       .  S
C1737      O1742   1.271       .  A
C1737      O1758   1.269       .  A
O1738      C1754   1.259       .  A
Tb1739     O1748   2.361       .  S
Tb1739     O1742   2.348       .  S
Tb1739     O1751   2.347       .  S
O1743      C1753   1.272   1_554  A
C1744      C1929   1.483       .  S
C1744      O1757   1.270       .  A
O1745      C1752   1.269       .  A
C1746      O1755   1.261       .  A
C1747      C1869   1.481       .  S
C1747      O1749   1.259       .  A
O1751      C1752   1.271       .  A
C1752      C1797   1.478       .  S
C1753      C1785   1.484       .  S
C1754      C1920   1.470       .  S
C1759      C1908   1.478       .  S
C1759      O1774   1.259       .  A
C1759      O1761   1.261       .  A
Tb1760     O1764   2.341       .  S
Tb1760     O1781   2.346       .  S
O1761     Tb1765   2.351       .  S
O1762      C1773   1.259   1_545  A
C1763      C1809   1.482       .  S
C1763      O1768   1.270       .  A
C1763      O1784   1.270       .  A
O1764      C1780   1.259       .  A
Tb1765     O1769   2.346       .  S
Tb1765     O1774   2.355       .  S
Tb1765     O1768   2.343       .  S
Tb1765     O1777   2.346       .  S
O1769      C1779   1.271       .  A
C1770      C1893   1.488       .  S
C1770      O1783   1.271       .  A
O1771      C1778   1.271       .  A
C1772      O1781   1.260       .  A
C1773      C1836   1.487       .  S
C1773      O1775   1.260       .  A
O1776      C1779   1.269       .  A
O1777      C1778   1.273       .  A
C1778      C1788   1.480       .  S
C1779      C1800   1.474       .  S
C1780      C1881   1.485       .  S
C1785      C1790   1.413       .  A
C1786      H1791   1.083       .  S
C1788      C1789   1.404       .  A
C1789      C1790   1.396       .  A
C1789      H1793   1.084       .  S
C1790      O1794   1.372       .  S
O1792      H1796   0.992       .  S
O1794      H1795   0.992       .  S
C1797      C1798   1.405       .  A
C1798      C1799   1.397       .  A
C1798      H1803   1.084       .  S
C1799      C1800   1.410       .  A
C1799      O1804   1.372       .  S
C1801      C1802   1.397       .  A
O1804      H1808   0.992       .  S
O1806      H1807   0.992   1_545  S
C1809      C1810   1.401       .  A
C1809      C1814   1.411       .  A
C1810      C1811   1.400       .  A
C1810      H1815   1.083       .  S
C1811      C1812   1.417       .  A
C1811      O1816   1.372       .  S
C1812      C1813   1.406       .  A
C1813      C1814   1.400       .  A
C1813      H1817   1.083       .  S
C1814      O1818   1.369       .  S
O1816      H1820   0.991       .  S
O1818      H1819   0.991       .  S
C1821      C1822   1.403       .  A
C1821      C1826   1.414       .  A
C1823      O1828   1.372       .  S
C1824      C1825   1.401       .  A
C1825      C1826   1.396       .  A
C1825      H1829   1.084       .  S
C1826      O1830   1.371       .  S
O1828      H1832   0.991       .  S
O1830      H1831   0.992       .  S
C1833      C1834   1.406       .  A
C1833      C1838   1.414       .  A
C1834      C1835   1.400       .  A
C1834      H1839   1.083       .  S
C1835      C1836   1.409       .  A
C1835      O1840   1.371       .  S
C1836      C1837   1.406       .  A
C1837      C1838   1.406       .  A
C1838      O1842   1.372       .  S
O1840      H1844   0.992       .  S
C1845      C1846   1.406       .  A
C1845      C1850   1.416       .  A
C1846      C1847   1.397       .  A
C1846      H1851   1.083       .  S
C1847      C1848   1.410       .  A
C1847      O1852   1.371       .  S
C1848      C1849   1.403       .  A
C1849      C1850   1.403       .  A
C1849      H1853   1.083       .  S
C1850      O1854   1.371       .  S
O1852      H1856   0.991       .  S
O1854      H1855   0.992       .  S
C1857      C1858   1.405       .  A
C1857      C1862   1.413       .  A
C1858      C1859   1.397       .  A
C1858      H1863   1.083       .  S
C1859      C1860   1.409       .  A
C1859      O1864   1.370       .  S
C1861      H1865   1.083       .  S
C1862      O1866   1.371       .  S
O1864      H1868   0.992       .  S
C1869      C1870   1.404       .  A
C1869      C1874   1.411       .  A
C1870      C1871   1.399       .  A
C1870      H1875   1.084       .  S
C1871      C1872   1.412       .  A
C1871      O1876   1.372       .  S
C1872      C1873   1.405       .  A
C1873      C1874   1.402       .  A
C1873      H1877   1.084       .  S
C1874      O1878   1.372   1_565  S
O1876      H1880   0.992       .  S
O1878      H1879   0.992       .  S
C1881      C1882   1.403       .  A
C1881      C1886   1.412       .  A
C1882      C1883   1.396       .  A
C1882      H1887   1.082       .  S
C1883      C1884   1.410       .  A
C1883      O1888   1.372       .  S
C1884      C1885   1.407       .  A
C1885      C1886   1.408       .  A
C1885      H1889   1.084       .  S
O1888      H1892   0.992       .  S
O1890      H1891   0.992       .  S
C1893      C1894   1.402       .  A
C1893      C1898   1.413       .  A
C1894      C1895   1.394       .  A
C1894      H1899   1.082       .  S
C1895      C1896   1.412       .  A
C1895      O1900   1.369       .  S
C1896      C1897   1.408       .  A
C1897      C1898   1.406       .  A
C1897      H1901   1.083       .  S
C1898      O1902   1.371       .  S
O1900      H1904   0.992       .  S
O1902      H1903   0.991   1_655  S
C1905      C1906   1.406       .  A
C1905      C1910   1.415       .  A
C1906      C1907   1.403       .  A
C1906      H1911   1.083       .  S
C1907      C1908   1.411       .  A
C1907      O1912   1.371       .  S
C1908      C1909   1.399       .  A
C1909      C1910   1.395       .  A
C1909      H1913   1.084       .  S
C1910      O1914   1.369       .  S
O1912      H1916   0.992       .  S
O1914      H1915   0.991       .  S
C1917      C1922   1.414       .  A
C1918      C1919   1.404       .  A
C1918      H1923   1.084       .  S
C1920      C1921   1.398       .  A
C1921      C1922   1.394       .  A
C1921      H1925   1.084       .  S
C1922      O1926   1.370       .  S
O1924      H1928   0.992       .  S
O1926      H1927   0.993       .  S
C1929      C1930   1.401       .  A
C1929      C1934   1.409       .  A
C1930      C1931   1.404       .  A
C1930      H1935   1.083   1_655  S
C1931      C1932   1.418       .  A
C1931      O1936   1.372       .  S
C1932      C1933   1.404       .  A
C1933      C1934   1.397       .  A
C1933      H1937   1.083       .  S
C1934      O1938   1.369       .  S
O1936      H1940   0.991       .  S
O1938      H1939   0.992       .  S
C1941      C1942   1.408       .  A
C1941      C1946   1.413       .  A
C1942      C1943   1.403       .  A
C1942      H1947   1.083       .  S
C1943      C1944   1.410       .  A
C1943      O1948   1.371       .  S
C1944      C1945   1.405       .  A
C1945      C1946   1.403       .  A
C1945      H1949   1.084       .  S
O1948      H1952   0.992       .  S
O1950      H1951   0.992       .  S
