geometry optimzed in LAMMPS
_audit_creation_date              2020-12-01 
_audit_creation_method            'lammps2cif' 
_symmetry_space_group_name_H-M    'P1' 
_symmetry_Int_Tables_number       1 
_symmetry_cell_setting            triclinic 
loop_ 
_symmetry_equiv_pos_as_xyz 
  x,y,z 
_cell_length_a                    40.24643698 
_cell_length_b                    40.97295557361415 
_cell_length_c                    32.899517711664885 
_cell_angle_alpha                 89.84953543327734 
_cell_angle_beta                  89.61539466827438 
_cell_angle_gamma                 90.4503383734921 
loop_ 
_atom_site_label 
_atom_site_type_symbol 
_atom_site_fract_x 
_atom_site_fract_y 
_atom_site_fract_z 
_atom_site_charge 
N1          N  0.27992813  0.26949527  0.81945276    -0.03200
C2          C  0.27030060  0.29638804  0.84050525    -0.00600
C3          C  0.28316615  0.29575696  0.87920230    -0.23500
C4          C  0.30075413  0.26748659  0.88282391    -0.23700
C5          C  0.29861618  0.25195280  0.84579765    -0.00700
H6          H  0.27932527  0.31379653  0.90241692     0.13100
H7          H  0.31382425  0.25912586  0.90947739     0.13100
Zn8        Zn  0.46954856  0.49282076  0.86700279     1.49700
Zn9        Zn  0.51091536  0.45890040  0.93681760     1.49400
Zn10       Zn  0.04404369  0.50922231  0.86959152     1.49100
Zn11       Zn  0.50337586  0.03350407  0.93726601     1.49500
O12         O  0.50815919  0.49661155  0.90160357    -1.83800
O13         O  0.43723768  0.45832807  0.88885000    -0.74400
O14         O  0.06414981  0.44033060  0.91885487    -0.74300
O15         O  0.02784607  0.51292069  0.81189393    -0.73800
O16         O  0.46706668  0.43521191  0.93753704    -0.74500
O17         O  0.48283158  0.48508339  0.80811428    -0.74100
O18         O  0.07786833  0.47340686  0.86787071    -0.74600
O19         O  0.03530666  0.06703153  0.93903144    -0.74000
O20         O  0.51649328  0.47236300  0.99515537    -0.74800
O21         O  0.07060111  0.04913249  0.89216472    -0.74200
O22         O  0.49670427  0.01974877  0.99623247    -0.74700
O23         O  0.46685426  0.06405379  0.91702585    -0.74600
O24         O  0.44379869  0.03385203  0.86876672    -0.74300
C25         C  0.44003081  0.43792947  0.91802365     0.77400
C26         C  0.08296377  0.44772716  0.88873525     0.77900
C27         C  0.50849210  0.49549108  0.78885880     0.76900
C28         C  0.06259824  0.06978024  0.91947612     0.77300
C29         C  0.50535866  0.49713767  0.01414478     0.78400
C30         C  0.44534145  0.06023966  0.88895033     0.77500
N31         N  0.21994020  0.28611156  0.99099700    -0.03200
C32         C  0.19385158  0.27433936  0.96941510    -0.00600
C33         C  0.18820734  0.29358750  0.93572321    -0.23500
C34         C  0.21137305  0.31826977  0.93674818    -0.23700
C35         C  0.23036446  0.31337522  0.97104077    -0.00700
H36         H  0.17037947  0.28913879  0.91184582     0.13100
H37         H  0.21531556  0.33668553  0.91368084     0.13100
N38         N  0.98007373  0.97978294  0.32146536    -0.03200
C39         C  0.45501323  0.98474639  0.33696205    -0.00600
C40         C  0.44732618  0.96512633  0.36998931    -0.23500
C41         C  0.98826090  0.45882221  0.38230448    -0.23700
C42         C  0.00707886  0.46087851  0.34709879    -0.00700
H43         H  0.42724623  0.96844562  0.39152023     0.13100
H44         H  0.99093766  0.44142488  0.40683589     0.13100
Zn45       Zn  0.24963722  0.28245512  0.43612923     1.49700
Zn46       Zn  0.26763231  0.20907507  0.43696811     1.49400
Zn47       Zn  0.22214483  0.23716577  0.36676115     1.49100
Zn48       Zn  0.29832290  0.25535289  0.36739195     1.49500
O49         O  0.25972089  0.24591301  0.40157267    -1.83800
O50         O  0.24427000  0.26869495  0.49486867    -0.74400
O51         O  0.22644446  0.18041984  0.43836199    -0.74300
O52         O  0.19262390  0.27654839  0.36547428    -0.73800
O53         O  0.27476910  0.22387236  0.49556893    -0.74500
O54         O  0.21089466  0.30857015  0.41482431    -0.74100
O55         O  0.19509498  0.19836646  0.38788643    -0.74600
O56         O  0.28327645  0.26223451  0.30866106    -0.74000
O57         O  0.30644954  0.18310629  0.41453501    -0.74800
O58         O  0.23677242  0.23268343  0.30815788    -0.74200
O59         O  0.32780958  0.21534915  0.36635881    -0.74700
O60         O  0.32423906  0.29487436  0.38981758    -0.74600
O61         O  0.28874888  0.31229078  0.43670124    -0.74300
C62         C  0.26034485  0.24709493  0.51444567     0.77400
C63         C  0.19976766  0.17896857  0.41775332     0.77900
C64         C  0.19128664  0.30315585  0.38526677     0.76900
C65         C  0.25953856  0.24857733  0.28922286     0.77300
C66         C  0.32753082  0.18843301  0.38598050     0.78400
C67         C  0.31644886  0.31482427  0.41810564     0.77500
N68         N  0.98058147  0.02338123  0.49474729    -0.03200
C69         C  0.45606538  0.51137776  0.46777562    -0.00600
C70         C  0.45186772  0.52996446  0.43312711    -0.23500
C71         C  0.97447220  0.05717349  0.44133076    -0.23700
C72         C  0.99427747  0.04862235  0.47360690    -0.00700
H73         H  0.43203804  0.52782804  0.41135155     0.13100
H74         H  0.97941134  0.07606662  0.41905706     0.13100
C75         C  0.17305089  0.15513002  0.42952958    -0.19600
C76         C  0.17038463  0.14202770  0.46947510     0.36700
C77         C  0.14275344  0.12240539  0.48009182    -0.25500
C78         C  0.11811538  0.11498609  0.45173226     0.03100
C79         C  0.12101662  0.12710484  0.41174753     0.27900
C80         C  0.14828416  0.14717609  0.40112260    -0.24700
N81         N  0.19490844  0.14956889  0.49968747    -0.82100
H82         H  0.14023189  0.11299013  0.51078031     0.13700
C83         C  0.08845362  0.09577945  0.46466697     0.03100
N84         N  0.09569695  0.11974069  0.38246418    -0.80600
H85         H  0.14999510  0.15692086  0.37053110     0.18500
C86         C  0.06153720  0.11255970  0.48173603    -0.25500
C87         C  0.03106995  0.09680144  0.48941251     0.36600
C88         C  0.02745284  0.06333983  0.47982539    -0.19500
C89         C  0.05508064  0.04599777  0.46558719    -0.24700
C90         C  0.08552956  0.06179138  0.45764617     0.27900
H91         H  0.06378825  0.13851160  0.48754586     0.13700
N92         N  0.00402954  0.11579567  0.50524784    -0.82000
H93         H  0.05229106  0.02044829  0.45770146     0.18500
N94         N  0.11237616  0.04280574  0.44132078    -0.80600
H95         H  0.01127505  0.12467602  0.53362924     0.34200
H96         H  0.98299321  0.10132541  0.51067695     0.38700
H97         H  0.10520787  0.03452845  0.41262099     0.34100
H98         H  0.13388918  0.05682550  0.43712507     0.30800
H99         H  0.10111057  0.13106880  0.35465948     0.34100
H100        H  0.09615690  0.09460610  0.37713944     0.30800
H101        H  0.21662245  0.13725298  0.49164902     0.38700
H102        H  0.18772126  0.14025567  0.52805927     0.34200
C103        C  0.43570152  0.48206493  0.47702824    -0.19600
C104        C  0.40077644  0.48315628  0.47466029     0.36700
C105        C  0.38262351  0.45391776  0.47092076    -0.25500
C106        C  0.39882729  0.42373488  0.46953987     0.03100
C107        C  0.43342426  0.42249702  0.47553258     0.27900
C108        C  0.45156472  0.45176629  0.47937287    -0.24700
N109        N  0.38415197  0.51404582  0.47396174    -0.82100
H110        H  0.35595462  0.45475248  0.46677961     0.13700
C111        C  0.37955249  0.39416526  0.45822737     0.03100
N112        N  0.45008902  0.39160848  0.47575889    -0.80600
H113        H  0.47838710  0.45093943  0.48054150     0.18500
C114        C  0.38693339  0.37818209  0.42157997    -0.25500
C115        C  0.36712302  0.35206505  0.40757729     0.36600
C116        C  0.33946804  0.34152025  0.43109208    -0.19500
C117        C  0.33290825  0.35721141  0.46840898    -0.24700
C118        C  0.35256537  0.38332506  0.48210844     0.27900
H119        H  0.40760879  0.38691055  0.40315414     0.13700
N120        N  0.37463950  0.33692280  0.36928511    -0.82000
H121        H  0.31217520  0.34918307  0.48717714     0.18500
N122        N  0.34513297  0.39906695  0.52007885    -0.80600
H123        H  0.39622438  0.34708086  0.35648662     0.34200
H124        H  0.35530767  0.34239469  0.34938315     0.38700
H125        H  0.32431301  0.38831135  0.53395033     0.34100
H126        H  0.36517730  0.39511676  0.53950790     0.30800
H127        H  0.47562020  0.39494903  0.47988930     0.34100
H128        H  0.44132122  0.37846463  0.50097755     0.30800
H129        H  0.38954351  0.02087674  0.50859265     0.38700
H130        H  0.35846224  0.51067919  0.47160584     0.34200
C131        C  0.03483668  0.43837342  0.33859686    -0.19600
C132        C  0.03058218  0.40455814  0.34550004     0.36700
C133        C  0.05855854  0.38454229  0.34835280    -0.25500
C134        C  0.09063685  0.39761308  0.34443324     0.03100
C135        C  0.09496955  0.43088915  0.33455197     0.27900
C136        C  0.06688053  0.45109322  0.33177463    -0.24700
N137        N  0.99782777  0.39097539  0.35128035    -0.82100
H138        H  0.05544301  0.35882812  0.35534786     0.13700
C139        C  0.11906394  0.37610707  0.35333755     0.03100
N140        N  0.12784825  0.44415477  0.32904597    -0.80600
H141        H  0.07015222  0.47708423  0.32699387     0.18500
C142        C  0.12813349  0.35239743  0.32492993    -0.25500
C143        C  0.15217683  0.32883209  0.33412452     0.36600
C144        C  0.16682385  0.32846552  0.37325318    -0.19500
C145        C  0.15816761  0.35290871  0.40124443    -0.24700
C146        C  0.13443486  0.37669734  0.39168807     0.27900
H147        H  0.11608074  0.35212808  0.29557019     0.13700
N148        N  0.16171773  0.30544941  0.30375934    -0.82000
H149        H  0.16939461  0.35306539  0.43107914     0.18500
N150        N  0.12477209  0.40055178  0.42139361    -0.80600
H151        H  0.14807902  0.30872904  0.27713732     0.34200
H152        H  0.18657129  0.31010668  0.29610134     0.38700
H153        H  0.13759208  0.39697391  0.44855939     0.34100
H154        H  0.13210276  0.42348500  0.41044365     0.30800
H155        H  0.12676225  0.46908524  0.32236427     0.34100
H156        H  0.13832080  0.43286272  0.30359455     0.30800
H157        H  0.48554739  0.39231602  0.27858989     0.38700
H158        H  0.49603023  0.35664304  0.29986803     0.34200
C159        C  0.43829391  0.01619264  0.32908989    -0.19600
C160        C  0.45647730  0.04575304  0.32844534     0.36700
C161        C  0.43978378  0.07551099  0.33357288    -0.25500
C162        C  0.40521096  0.07604467  0.33912128     0.03100
C163        C  0.38672435  0.04686418  0.33512923     0.27900
C164        C  0.40348892  0.01712630  0.33080298    -0.24700
N165        N  0.49199619  0.04549435  0.32559051    -0.82100
H166        H  0.45402243  0.09799005  0.33570864     0.13700
C167        C  0.38866418  0.10649997  0.35240871     0.03100
N168        N  0.35105716  0.04750915  0.33745631    -0.80600
H169        H  0.38947999  0.99442914  0.33084662     0.18500
C170        C  0.38457492  0.13221663  0.32481881    -0.25500
C171        C  0.36585568  0.15994217  0.33530114     0.36600
C172        C  0.35113610  0.16199576  0.37456430    -0.19500
C173        C  0.35722438  0.13697062  0.40281520    -0.24700
C174        C  0.37589505  0.10938746  0.39226430     0.27900
H175        H  0.39495347  0.13003951  0.29447620     0.13700
N176        N  0.36092388  0.18528851  0.30568631    -0.82000
H177        H  0.34684654  0.13861492  0.43320349     0.18500
N178        N  0.38236811  0.08453043  0.42209538    -0.80600
H179        H  0.37441357  0.18050618  0.27911804     0.34200
H180        H  0.33584833  0.18480150  0.29758842     0.38700
H181        H  0.37287778  0.09126036  0.45049482     0.34100
H182        H  0.36946382  0.06341121  0.41374802     0.30800
H183        H  0.34118317  0.02396085  0.33450983     0.34100
H184        H  0.34264577  0.06093230  0.31254222     0.30800
H185        H  0.99454670  0.06600702  0.30206215     0.38700
H186        H  0.00061508  0.06408515  0.35278261     0.34200
C187        C  0.22670837  0.27892599  0.03296886    -0.19600
C188        C  0.24569175  0.25181762  0.04446459     0.36700
C189        C  0.25190220  0.24594171  0.08587915    -0.25500
C190        C  0.23950508  0.26697026  0.11590857     0.03100
C191        C  0.22038207  0.29410840  0.10441155     0.27900
C192        C  0.21431458  0.29988416  0.06299618    -0.24700
N193        N  0.25919326  0.23065604  0.01417038    -0.82100
H194        H  0.26661457  0.22506587  0.09463112     0.13700
C195        C  0.24632152  0.26038347  0.15942225     0.03100
N196        N  0.20727654  0.31564108  0.13488756    -0.80600
H197        H  0.19970425  0.32072035  0.05386439     0.18500
C198        C  0.27124310  0.27819014  0.17921814    -0.25500
C199        C  0.27721638  0.27398125  0.22108702     0.36600
C200        C  0.25722223  0.25177544  0.24392966    -0.19500
C201        C  0.23268651  0.23353284  0.22338411    -0.24700
C202        C  0.22704029  0.23765593  0.18153891     0.27900
H203        H  0.28595333  0.29564479  0.16186494     0.13700
N204        N  0.30295486  0.29278357  0.24033481    -0.82000
H205        H  0.21727895  0.21630991  0.24013915     0.18500
N206        N  0.20146059  0.21919325  0.16146640    -0.80600
H207        H  0.31391287  0.30913613  0.21969213     0.34200
H208        H  0.32164248  0.27657322  0.24874753     0.38700
H209        H  0.18961952  0.20328560  0.18191274     0.34100
H210        H  0.18342304  0.23561580  0.15165975     0.30800
H211        H  0.19399223  0.33457579  0.12136516     0.34100
H212        H  0.19021677  0.30228517  0.15248789     0.30800
H213        H  0.25044113  0.20701227  0.02007823     0.38700
H214        H  0.28502242  0.23057885  0.01732485     0.34200
C215        C  0.41101788  0.41762959  0.93063809    -0.19600
C216        C  0.40496424  0.41007002  0.97212881     0.36700
C217        C  0.37669524  0.39155199  0.98307588    -0.25500
C218        C  0.35438943  0.38057205  0.95358013     0.03100
C219        C  0.36054956  0.38763126  0.91223153     0.27900
C220        C  0.38863069  0.40639265  0.90117886    -0.24700
N221        N  0.42691998  0.42205351  0.00312511    -0.82100
H222        H  0.37158188  0.38622772  0.01479935     0.13700
C223        C  0.32341835  0.36349147  0.96632458     0.03100
N224        N  0.33800213  0.37593507  0.88175828    -0.80600
H225        H  0.39320523  0.41206877  0.86943575     0.18500
C226        C  0.29381626  0.38126961  0.96594739    -0.25500
C227        C  0.26295108  0.36576517  0.97200637     0.36600
C228        C  0.26165468  0.33173850  0.97851463    -0.19500
C229        C  0.29145241  0.31444326  0.98258421    -0.24700
C230        C  0.32237368  0.32977509  0.97595056     0.27900
H231        H  0.29476021  0.40716803  0.95919128     0.13700
N232        N  0.23272728  0.38413512  0.96979912    -0.82000
H233        H  0.29069723  0.28825628  0.98687665     0.18500
N234        N  0.35176864  0.31006347  0.97726275    -0.80600
H235        H  0.23789414  0.40881836  0.96436488     0.34200
H236        H  0.22113962  0.38270734  0.99829347     0.38700
H237        H  0.35019406  0.29304201  0.95372856     0.34100
H238        H  0.37326199  0.32382436  0.97183174     0.30800
H239        H  0.34587757  0.38337668  0.85281270     0.34100
H240        H  0.33885805  0.35043130  0.88206261     0.30800
H241        H  0.42530111  0.44751550  0.00330411     0.38700
H242        H  0.41909315  0.41406440  0.03187040     0.34200
C243        C  0.08522104  0.09739602  0.93005042    -0.19600
C244        C  0.10687854  0.11233430  0.90142422     0.36700
C245        C  0.12559705  0.13997550  0.91290903    -0.25500
C246        C  0.12410322  0.15242832  0.95267286     0.03100
C247        C  0.10340967  0.13682050  0.98161198     0.27900
C248        C  0.08396946  0.10982769  0.96989795    -0.24700
N249        N  0.10894585  0.10032031  0.86048107    -0.82100
H250        H  0.14121258  0.15216426  0.89051821     0.13700
C251        C  0.14351932  0.18243273  0.96297199     0.03100
N252        N  0.10225480  0.14839308  0.02281790    -0.80600
H253        H  0.06783628  0.09824230  0.99224487     0.18500
C254        C  0.12702154  0.20971329  0.97905735    -0.25500
C255        C  0.14388851  0.23954106  0.98497429     0.36600
C256        C  0.17778232  0.24210477  0.97454940    -0.19500
C257        C  0.19452836  0.21469287  0.95980989    -0.24700
C258        C  0.17790503  0.18474377  0.95446835     0.27900
H259        H  0.10060076  0.20814004  0.98535738     0.13700
N260        N  0.12648099  0.26768852  0.99967046    -0.82000
H261        H  0.22024556  0.21715136  0.95027867     0.18500
N262        N  0.19558197  0.15688271  0.93940676    -0.80600
H263        H  0.10157466  0.26186653  0.00563403     0.34200
H264        H  0.13703354  0.27423265  0.02747326     0.38700
H265        H  0.22062084  0.16270691  0.93446834     0.34100
H266        H  0.19492249  0.13902588  0.96214979     0.30800
H267        H  0.08574853  0.13433924  0.04027083     0.34100
H268        H  0.12586272  0.14511191  0.03530939     0.30800
H269        H  0.12082541  0.07774137  0.86154581     0.38700
H270        H  0.12419943  0.11549645  0.84268924     0.34200
C271        C  0.50816447  0.49617246  0.74346946    -0.19600
C272        C  0.52850824  0.02089130  0.72238984     0.36700
C273        C  0.52514757  0.02373390  0.67993693    -0.25500
C274        C  0.00123540  0.50503888  0.66271184     0.03100
C275        C  0.02673675  0.52057402  0.68456070     0.27900
C276        C  0.02822841  0.51650745  0.72695957    -0.24700
N277        N  0.55351962  0.03980469  0.74286649    -0.82100
H278        H  0.54145049  0.04003105  0.66295866     0.13700
C279        C  0.99569268  0.51276585  0.61937609     0.05100
N280        N  0.05027625  0.54133275  0.66371890    -0.80600
H281        H  0.04768985  0.52898681  0.74352582     0.18500
C282        C  0.97446562  0.02515464  0.60817477    -0.25500
C283        C  0.96733031  0.03058901  0.56719310     0.36600
C284        C  0.98061298  0.52784684  0.53804886    -0.19500
C285        C  0.47045500  0.53220028  0.55750895    -0.24700
C286        C  0.47409047  0.52754733  0.59951067     0.27900
H287        H  0.95908157  0.03636704  0.63134343     0.13700
N288        N  0.94020796  0.05117585  0.55635019    -0.82000
H289        H  0.45230062  0.54932226  0.54623324     0.18500
N290        N  0.45477769  0.54636056  0.62781468    -0.80600
H291        H  0.94437104  0.07416833  0.56914831     0.34200
H292        H  0.91857411  0.04140623  0.56944650     0.38700
H293        H  0.43940166  0.56260037  0.61233965     0.34100
H294        H  0.43904671  0.53037162  0.64369987     0.30800
H295        H  0.06715134  0.55148056  0.68424585     0.34100
H296        H  0.06407237  0.52670067  0.64396444     0.30800
H297        H  0.57163698  0.02358541  0.75294326     0.38700
H298        H  0.56559505  0.05564741  0.72253562     0.34200
C299        C  0.50202049  0.49506405  0.05941379    -0.19600
C300        C  0.49828138  0.02090698  0.08440066     0.36700
C301        C  0.49753311  0.01817875  0.12698780    -0.25500
C302        C  0.01251902  0.49614673  0.14993048     0.03100
C303        C  0.02036286  0.46828069  0.12684146     0.27900
C304        C  0.01989772  0.47001772  0.08411013    -0.24700
N305        N  0.48828659  0.05091521  0.06590859    -0.82100
H306        H  0.48892250  0.03856856  0.14503588     0.13700
C307        C  0.00937269  0.49411030  0.19497099     0.03100
N308        N  0.02850632  0.43823911  0.14700446    -0.80600
H309        H  0.02537010  0.44828206  0.06670616     0.18500
C310        C  0.46130588  0.46770689  0.20368187    -0.25500
C311        C  0.45597704  0.46310200  0.24546392     0.36600
C312        C  0.98520464  0.98633914  0.27880373    -0.19500
C313        C  0.01583758  0.99828592  0.26431958    -0.24700
C314        C  0.02143078  0.00299655  0.22231448     0.27900
H315        H  0.44293877  0.45885013  0.18234505     0.13700
N316        N  0.42679512  0.44622027  0.25953083    -0.82000
H317        H  0.03533451  0.00382719  0.28572733     0.18500
N318        N  0.05305374  0.01472235  0.20764209    -0.80600
H319        H  0.42648314  0.42301475  0.24638165     0.34200
H320        H  0.40604052  0.45889202  0.24917525     0.38700
H321        H  0.06908990  0.01917015  0.23191287     0.34100
H322        H  0.06374806  0.99611089  0.19039388     0.30800
H323        H  0.03354473  0.41995652  0.12577608     0.34100
H324        H  0.05046563  0.44219894  0.16313654     0.30800
H325        H  0.46389891  0.05573434  0.07511670     0.38700
H326        H  0.50357936  0.06960463  0.07690776     0.34200
C327        C  0.27724537  0.26458672  0.77618922    -0.19600
C328        C  0.26396096  0.23561616  0.75985878     0.36700
C329        C  0.26194777  0.23180700  0.71742925    -0.25500
C330        C  0.27356048  0.25635588  0.69079568     0.03100
C331        C  0.28780119  0.28504726  0.70737662     0.27900
C332        C  0.28894022  0.28901214  0.74977076    -0.24700
N333        N  0.25159157  0.21046497  0.78627565    -0.82100
H334        H  0.25064579  0.20984809  0.70529957     0.13700
C335        C  0.26939985  0.25271621  0.64584460     0.03100
N336        N  0.30139109  0.30993140  0.68107504    -0.80600
H337        H  0.29966475  0.31102986  0.76248638     0.18500
C338        C  0.25440624  0.27803788  0.62402875    -0.25500
C339        C  0.25173934  0.27719380  0.58147124     0.36600
C340        C  0.26268395  0.24931248  0.55981374    -0.19500
C341        C  0.27678240  0.22342180  0.58192678    -0.24700
C342        C  0.28064386  0.22499283  0.62449444     0.27900
H343        H  0.24528240  0.29910969  0.64036699     0.13700
N344        N  0.23857587  0.30499848  0.56041173    -0.82000
H345        H  0.28536992  0.20198892  0.56590687     0.18500
N346        N  0.29645668  0.19880099  0.64593127    -0.80600
H347        H  0.23058165  0.32276405  0.58095589     0.34200
H348        H  0.25811746  0.31563910  0.54382399     0.38700
H349        H  0.30315290  0.18017581  0.62588914     0.34100
H350        H  0.31853263  0.20800477  0.65813844     0.30800
H351        H  0.31073432  0.32946388  0.69801647     0.34100
H352        H  0.32158102  0.29984202  0.66553529     0.30800
H353        H  0.26444640  0.18902140  0.77967818     0.38700
H354        H  0.22652016  0.20649592  0.77963343     0.34200
C355        C  0.31557572  0.22079700  0.83815857    -0.19600
C356        C  0.30503534  0.19273212  0.85950086     0.36700
C357        C  0.32611167  0.16580719  0.86245861    -0.25500
C358        C  0.35805278  0.16674986  0.84521280     0.03100
C359        C  0.36780139  0.19400472  0.82157669     0.27900
C360        C  0.34643240  0.22087988  0.81815638    -0.24700
N361        N  0.27345728  0.19222710  0.87986125    -0.82100
H362        H  0.31823440  0.14482939  0.88031355     0.13700
C363        C  0.38133651  0.13992663  0.85480919     0.03100
N364        N  0.39965606  0.19474491  0.80194534    -0.80600
H365        H  0.35483667  0.24260101  0.80213866     0.18500
C366        C  0.37299329  0.10791423  0.84389738    -0.25500
C367        C  0.39288006  0.08143729  0.85550645     0.36600
C368        C  0.42217817  0.08715880  0.87836637    -0.19500
C369        C  0.43014322  0.11934176  0.88963511    -0.24700
C370        C  0.40997647  0.14560006  0.87819976     0.27900
H371        H  0.35052580  0.10356285  0.82668997     0.13700
N372        N  0.38302332  0.04881413  0.84460600    -0.82000
H373        H  0.45229157  0.12428833  0.90719084     0.18500
N374        N  0.41819261  0.17796152  0.89129649    -0.80600
H375        H  0.36138320  0.04903256  0.82718165     0.34200
H376        H  0.37708074  0.03634937  0.87148562     0.38700
H377        H  0.41892708  0.17796826  0.92305546     0.34100
H378        H  0.44201085  0.18369416  0.88043511     0.30800
H379        H  0.41275572  0.21509508  0.81261055     0.34100
H380        H  0.39589355  0.19794779  0.77078239     0.30800
H381        H  0.25969741  0.17251302  0.86864712     0.38700
H382        H  0.27753951  0.18819517  0.91082537     0.34200
C383        C  0.24488984  0.32067515  0.82892227    -0.19600
C384        C  0.21202300  0.31074892  0.82076776     0.36700
C385        C  0.18599828  0.33331442  0.82436614    -0.25500
C386        C  0.19225737  0.36550353  0.83681533     0.03100
C387        C  0.22528720  0.37605684  0.84257820     0.27900
C388        C  0.25129312  0.35361166  0.83806613    -0.24700
N389        N  0.20460539  0.27719005  0.81257139    -0.82100
H390        H  0.16059085  0.32507614  0.82027567     0.13700
C391        C  0.16407151  0.38639453  0.84936771     0.03100
N392        N  0.23200832  0.40872857  0.85625769    -0.80600
H393        H  0.27644504  0.36114503  0.84514998     0.18500
C394        C  0.15250237  0.38446027  0.88961455    -0.25500
C395        C  0.12587597  0.40368947  0.90336967     0.36600
C396        C  0.11083565  0.42597320  0.87629612    -0.19500
C397        C  0.12267748  0.42774724  0.83586223    -0.24700
C398        C  0.14894907  0.40806911  0.82210537     0.27900
H399        H  0.16419524  0.36764163  0.91039715     0.13700
N400        N  0.11473979  0.40102272  0.94486314    -0.82000
H401        H  0.11113582  0.44434930  0.81462049     0.18500
N402        N  0.15990938  0.40958258  0.78045432    -0.80600
H403        H  0.13025646  0.38555961  0.96132382     0.34200
H404        H  0.09143530  0.38958275  0.94464026     0.38700
H405        H  0.14576501  0.42634983  0.76411569     0.34100
H406        H  0.18431970  0.41845342  0.78005154     0.30800
H407        H  0.25748451  0.41220273  0.86078838     0.34100
H408        H  0.22522046  0.42473861  0.83304140     0.30800
H409        H  0.18820866  0.26864030  0.83504442     0.38700
H410        H  0.19247710  0.27596024  0.78461179     0.34200
N411        N  0.28043026  0.77039155  0.81891253    -0.03200
C412        C  0.26936164  0.79627911  0.84077255    -0.00600
C413        C  0.28387511  0.79675642  0.87866068    -0.23500
C414        C  0.30407094  0.77014272  0.88083797    -0.23700
C415        C  0.30169199  0.75451778  0.84389191    -0.00700
H416        H  0.27940625  0.81420784  0.90248888     0.13100
H417        H  0.31867037  0.76268517  0.90669404     0.13100
Zn418      Zn  0.46838220  0.99167095  0.86772742     1.49700
Zn419      Zn  0.50970893  0.95732220  0.93702332     1.49400
Zn420      Zn  0.04647630  0.00805525  0.87237563     1.49100
Zn421      Zn  0.50546251  0.53541971  0.93560191     1.49500
O422        O  0.50683413  0.99544503  0.90248589    -1.83800
O423        O  0.43636203  0.95696098  0.88882436    -0.74400
O424        O  0.05986027  0.93691431  0.92198495    -0.74300
O425        O  0.03248375  0.01208882  0.81344051    -0.73800
O426        O  0.46506795  0.93540965  0.93956277    -0.74500
O427        O  0.48168744  0.98605211  0.80858373    -0.74100
O428        O  0.07750033  0.96992074  0.87253379    -0.74600
O429        O  0.03257881  0.56771652  0.93721506    -0.74000
O430        O  0.51872092  0.97024230  0.99525154    -0.74800
O431        O  0.06682004  0.55084131  0.88856963    -0.74200
O432        O  0.49640545  0.52264998  0.99479464    -0.74700
O433        O  0.47056199  0.56674576  0.91305675    -0.74600
O434        O  0.44642453  0.53604219  0.86614329    -0.74300
C435        C  0.43835921  0.93779008  0.91932926     0.77400
C436        C  0.07978625  0.94342229  0.89265919     0.77900
C437        C  0.50713520  0.99758428  0.78988608     0.76900
C438        C  0.05930201  0.57103973  0.91652390     0.77300
C439        C  0.50802220  0.99488480  0.01494765     0.78400
C440        C  0.44922044  0.56310764  0.88473837     0.77500
N441        N  0.22185307  0.78335596  0.99084029    -0.03200
C442        C  0.19797083  0.76976175  0.96723064    -0.00600
C443        C  0.19184888  0.78908005  0.93376306    -0.23500
C444        C  0.21249059  0.81565840  0.93691713    -0.23700
C445        C  0.23061911  0.81163823  0.97201012    -0.00700
H446        H  0.17475511  0.78399802  0.90928879     0.13100
H447        H  0.21524140  0.83507210  0.91501693     0.13100
N448        N  0.99665408  0.48596686  0.32338009    -0.03200
C449        C  0.44733543  0.47928287  0.33800588    -0.00600
C450        C  0.44481363  0.46148388  0.37363481    -0.23500
C451        C  0.97126346  0.94682852  0.37544947    -0.23700
C452        C  0.99070469  0.95274415  0.34143148    -0.00700
H453        H  0.42607404  0.46408518  0.39695063     0.13100
H454        H  0.97435144  0.92751517  0.39756886     0.13100
Zn455      Zn  0.24427702  0.78589610  0.43570227     1.49700
Zn456      Zn  0.25957134  0.71117275  0.43794164     1.49400
Zn457      Zn  0.21663074  0.74037544  0.36662666     1.49100
Zn458      Zn  0.29357833  0.75423327  0.36929820     1.49500
O459        O  0.25374607  0.74819132  0.40226832    -1.83800
O460        O  0.23973365  0.77257670  0.49507036    -0.74400
O461        O  0.21701324  0.68544903  0.43996601    -0.74300
O462        O  0.18709699  0.77962179  0.36514931    -0.73800
O463        O  0.26767262  0.72609491  0.49596027    -0.74500
O464        O  0.20434218  0.81202263  0.41465478    -0.74100
O465        O  0.18857571  0.70269075  0.38671748    -0.74600
O466        O  0.27967101  0.76253791  0.31059080    -0.74000
O467        O  0.29543012  0.68126791  0.41573396    -0.74800
O468        O  0.23181571  0.73503724  0.30874256    -0.74200
O469        O  0.31965552  0.71133589  0.36757556    -0.74700
O470        O  0.32131727  0.79240115  0.39273849    -0.74600
O471        O  0.28474600  0.81471296  0.43517733    -0.74300
C472        C  0.25453023  0.75009305  0.51472896     0.77400
C473        C  0.19126644  0.68425821  0.41778655     0.77900
C474        C  0.18478700  0.80608588  0.38505754     0.76900
C475        C  0.25559498  0.74999231  0.29065533     0.77300
C476        C  0.31668443  0.68436452  0.38693715     0.78400
C477        C  0.31351561  0.81433030  0.41874523     0.77500
N478        N  0.97149368  0.53510506  0.49684279    -0.03200
C479        C  0.45512150  0.01071501  0.46811882    -0.00600
C480        C  0.44802414  0.03071292  0.43549840    -0.23500
C481        C  0.96034451  0.56692336  0.44290605    -0.23700
C482        C  0.98092966  0.56211472  0.47574006    -0.00700
H483        H  0.42763043  0.02807662  0.41454239     0.13100
H484        H  0.96286675  0.58552751  0.41972936     0.13100
C485        C  0.16309947  0.66227318  0.42919310    -0.19600
C486        C  0.16055573  0.64745835  0.46817369     0.36700
C487        C  0.13122700  0.63077947  0.47917193    -0.25500
C488        C  0.10500200  0.62745027  0.45178855     0.03100
C489        C  0.10785138  0.64094567  0.41250666     0.27900
C490        C  0.13674950  0.65834002  0.40168259    -0.24700
N491        N  0.18718787  0.64999087  0.49694042    -0.82100
H492        H  0.12870790  0.62024114  0.50929815     0.13700
C493        C  0.07409429  0.61066012  0.46488560     0.03100
N494        N  0.08109874  0.63733884  0.38405145    -0.80600
H495        H  0.13842181  0.66926675  0.37171237     0.18500
C496        C  0.04501157  0.62917443  0.46758097    -0.25500
C497        C  0.01422421  0.61446131  0.47578937     0.36600
C498        C  0.01245689  0.58017329  0.48083890    -0.19500
C499        C  0.04183692  0.56204702  0.48143549    -0.24700
C500        C  0.07265709  0.57668942  0.47294204     0.27900
H501        H  0.04615836  0.65528840  0.46224719     0.13700
N502        N  0.98532242  0.63488850  0.47765408    -0.82000
H503        H  0.04059777  0.53575304  0.48485646     0.18500
N504        N  0.10130559  0.55595316  0.47056262    -0.80600
H505        H  0.98933707  0.65215107  0.50048616     0.34200
H506        H  0.96436827  0.62165966  0.48703886     0.38700
H507        H  0.09708688  0.53899765  0.44742383     0.34100
H508        H  0.12271243  0.56877896  0.46210455     0.30800
H509        H  0.08695146  0.64896889  0.35656838     0.34100
H510        H  0.07853788  0.61247401  0.37760204     0.30800
H511        H  0.20689024  0.63608529  0.48574349     0.38700
H512        H  0.18035054  0.63942936  0.52476279     0.34200
C513        C  0.43633986  0.98009479  0.47655214    -0.19600
C514        C  0.40130995  0.98021556  0.47744868     0.36700
C515        C  0.38365548  0.95067532  0.47343621    -0.25500
C516        C  0.40027020  0.92087956  0.46879442     0.03100
C517        C  0.43528078  0.92048585  0.47091561     0.27900
C518        C  0.45296909  0.95016328  0.47448528    -0.24700
N519        N  0.38386673  0.01060854  0.48039524    -0.82100
H520        H  0.35677933  0.95108182  0.47190274     0.13700
C521        C  0.38054030  0.89108341  0.45840835     0.03100
N522        N  0.45271963  0.89011018  0.46782610    -0.80600
H523        H  0.47975317  0.95007765  0.47213060     0.18500
C524        C  0.38693271  0.87462645  0.42174215    -0.25500
C525        C  0.36597194  0.84916347  0.40811358     0.36600
C526        C  0.33796187  0.83986280  0.43178074    -0.19500
C527        C  0.33249605  0.85568963  0.46922129    -0.24700
C528        C  0.35347078  0.88092618  0.48279932     0.27900
H529        H  0.40759889  0.88262687  0.40281869     0.13700
N530        N  0.37255861  0.83356717  0.36985725    -0.82000
H531        H  0.31159389  0.84840096  0.48817673     0.18500
N532        N  0.34723544  0.89653182  0.52117316    -0.80600
H533        H  0.39441369  0.84284005  0.35672902     0.34200
H534        H  0.35327452  0.83962841  0.35015347     0.38700
H535        H  0.32624048  0.88639784  0.53538801     0.34100
H536        H  0.36741536  0.89165546  0.54003666     0.30800
H537        H  0.47837946  0.89405597  0.46945485     0.34100
H538        H  0.44610833  0.87597247  0.49315818     0.30800
H539        H  0.38840764  0.52540061  0.50189406     0.38700
H540        H  0.35817876  0.00662196  0.48016876     0.34200
C541        C  0.02115444  0.93380763  0.33285998    -0.19600
C542        C  0.01923879  0.89961406  0.32857721     0.36700
C543        C  0.04811640  0.88080679  0.33291311    -0.25500
C544        C  0.07880332  0.89552064  0.34194818     0.03100
C545        C  0.08115913  0.92989986  0.34325849     0.27900
C546        C  0.05221228  0.94870739  0.33906187    -0.24700
N547        N  0.98757966  0.88408393  0.32203350    -0.82100
H548        H  0.04638292  0.85443182  0.33139887     0.13700
C549        C  0.10746791  0.87435285  0.35256566     0.03100
N550        N  0.11271772  0.94543722  0.35034957    -0.80600
H551        H  0.05355277  0.97485269  0.34359541     0.18500
C552        C  0.11938972  0.85205800  0.32388368    -0.25500
C553        C  0.14510398  0.83027436  0.33336635     0.36600
C554        C  0.15887697  0.83018308  0.37301213    -0.19500
C555        C  0.14724415  0.85302339  0.40147863    -0.24700
C556        C  0.12154597  0.87488014  0.39179208     0.27900
H557        H  0.10857325  0.85175824  0.29380611     0.13700
N558        N  0.15739041  0.80848644  0.30262345    -0.82000
H559        H  0.15756991  0.85322855  0.43180048     0.18500
N560        N  0.10910843  0.89707528  0.42195211    -0.80600
H561        H  0.14427120  0.81130791  0.27553090     0.34200
H562        H  0.18199674  0.81523168  0.29625013     0.38700
H563        H  0.08441359  0.89057822  0.42816323     0.34100
H564        H  0.12207899  0.89448889  0.44918320     0.30800
H565        H  0.11017416  0.97081447  0.35085456     0.34100
H566        H  0.12817000  0.94006573  0.32562640     0.30800
H567        H  0.48508481  0.88830435  0.28751404     0.38700
H568        H  0.49648364  0.85416964  0.31181440     0.34200
C569        C  0.42640030  0.50856184  0.33031666    -0.19600
C570        C  0.44082938  0.53948199  0.32263520     0.36700
C571        C  0.42191455  0.56794443  0.32807242    -0.25500
C572        C  0.38870650  0.56628765  0.34144943     0.03100
C573        C  0.37333565  0.53527414  0.34541891     0.27900
C574        C  0.39238603  0.50685131  0.34023324    -0.24700
N575        N  0.47531969  0.54235985  0.31235246    -0.82100
H576        H  0.43389907  0.59153366  0.32423930     0.13700
C577        C  0.37113561  0.59697167  0.35352542     0.03100
N578        N  0.33866865  0.53278481  0.35587074    -0.80600
H579        H  0.38103331  0.48319900  0.34598192     0.18500
C580        C  0.36940064  0.62329829  0.32620879    -0.25500
C581        C  0.35257027  0.65234139  0.33640892     0.36600
C582        C  0.33720855  0.65537765  0.37518537    -0.19500
C583        C  0.33986509  0.62923368  0.40277492    -0.24700
C584        C  0.35700107  0.60049251  0.39269224     0.27900
H585        H  0.38063776  0.62087850  0.29635946     0.13700
N586        N  0.35049330  0.67829321  0.30706339    -0.82000
H587        H  0.32868469  0.63126778  0.43269437     0.18500
N588        N  0.36059855  0.57503093  0.42243436    -0.80600
H589        H  0.36396753  0.67258417  0.28077614     0.34200
H590        H  0.32564511  0.68007156  0.29831659     0.38700
H591        H  0.38590200  0.57321961  0.42896740     0.34100
H592        H  0.34865270  0.58119455  0.44963184     0.30800
H593        H  0.33126335  0.50832235  0.35811235     0.34100
H594        H  0.32522448  0.54296540  0.33196674     0.30800
H595        H  0.00978109  0.57742069  0.31001660     0.38700
H596        H  0.00903700  0.57427458  0.36130055     0.34200
C597        C  0.22732510  0.77661058  0.03322509    -0.19600
C598        C  0.24546000  0.74936650  0.04612808     0.36700
C599        C  0.25062749  0.74415711  0.08789429    -0.25500
C600        C  0.23816410  0.76606512  0.11696355     0.03100
C601        C  0.21998729  0.79344886  0.10393028     0.27900
C602        C  0.21490702  0.79846516  0.06220360    -0.24700
N603        N  0.25948183  0.72758647  0.01690014    -0.82100
H604        H  0.26488954  0.72326135  0.09764699     0.13700
C605        C  0.24454750  0.76053400  0.16091816     0.03100
N606        N  0.20663475  0.81592791  0.13316465    -0.80600
H607        H  0.20103251  0.81946693  0.05198883     0.18500
C608        C  0.26184670  0.78438888  0.18303115    -0.25500
C609        C  0.26690185  0.78109669  0.22511823     0.36600
C610        C  0.25427763  0.75321505  0.24565052    -0.19500
C611        C  0.23743221  0.72909149  0.22321051    -0.24700
C612        C  0.23240510  0.73247443  0.18113700     0.27900
H613        H  0.27114894  0.80591037  0.16732886     0.13700
N614        N  0.28335303  0.80672568  0.24717343    -0.82000
H615        H  0.22760150  0.70770972  0.23872952     0.18500
N616        N  0.21430585  0.70794879  0.15905889    -0.80600
H617        H  0.28851747  0.82660318  0.22809518     0.34200
H618        H  0.30638013  0.79782280  0.25636861     0.38700
H619        H  0.20712605  0.68880105  0.17835074     0.34100
H620        H  0.19242863  0.71858266  0.14856623     0.30800
H621        H  0.19415590  0.83488421  0.11856634     0.34100
H622        H  0.18888423  0.80330623  0.15057301     0.30800
H623        H  0.25038700  0.70411515  0.02311997     0.38700
H624        H  0.28522062  0.72738519  0.02098321     0.34200
C625        C  0.40867934  0.91879828  0.93265705    -0.19600
C626        C  0.40320012  0.91099820  0.97420929     0.36700
C627        C  0.37438027  0.89364329  0.98573717    -0.25500
C628        C  0.35094001  0.88412359  0.95681548     0.03100
C629        C  0.35609468  0.89204566  0.91552389     0.27900
C630        C  0.38482430  0.90950698  0.90386448    -0.24700
N631        N  0.42641785  0.92138388  0.00470862    -0.82100
H632        H  0.36996922  0.88768044  0.01743983     0.13700
C633        C  0.32074103  0.86605881  0.96992937     0.03100
N634        N  0.33203209  0.88233089  0.88570308    -0.80600
H635        H  0.38876660  0.91560620  0.87212165     0.18500
C636        C  0.29037203  0.88258893  0.96975269    -0.25500
C637        C  0.26021913  0.86562620  0.97512044     0.36600
C638        C  0.26056559  0.83151267  0.98083060    -0.19500
C639        C  0.29104912  0.81553453  0.98507136    -0.24700
C640        C  0.32121444  0.83224103  0.97896763     0.27900
H641        H  0.29016790  0.90855961  0.96340950     0.13700
N642        N  0.22912809  0.88254443  0.97282480    -0.82000
H643        H  0.29146503  0.78927864  0.98895036     0.18500
N644        N  0.35141616  0.81369913  0.97987401    -0.80600
H645        H  0.23313067  0.90751060  0.96801345     0.34200
H646        H  0.21733740  0.88016530  0.00110228     0.38700
H647        H  0.35047169  0.79686209  0.95609099     0.34100
H648        H  0.37237932  0.82824512  0.97457961     0.30800
H649        H  0.33931564  0.89027342  0.85674012     0.34100
H650        H  0.33162543  0.85682190  0.88482116     0.30800
H651        H  0.42601842  0.94688766  0.00561791     0.38700
H652        H  0.41888825  0.91325741  0.03351212     0.34200
C653        C  0.08247583  0.59823542  0.92692040    -0.19600
C654        C  0.10396392  0.61310789  0.89797769     0.36700
C655        C  0.12468101  0.63918748  0.90998793    -0.25500
C656        C  0.12500566  0.65027308  0.95035825     0.03100
C657        C  0.10427649  0.63491139  0.97941673     0.27900
C658        C  0.08303638  0.60938624  0.96734445    -0.24700
N659        N  0.10386968  0.60267698  0.85628754    -0.82100
H660        H  0.14034875  0.65130882  0.88758649     0.13700
C661        C  0.14557192  0.67931567  0.96109735     0.03100
N662        N  0.10494136  0.64529142  0.02111986    -0.80600
H663        H  0.06708911  0.59780396  0.98988810     0.18500
C664        C  0.12981981  0.70705708  0.97690061    -0.25500
C665        C  0.14750836  0.73633355  0.98288899     0.36600
C666        C  0.18155223  0.73783418  0.97309241    -0.19500
C667        C  0.19766960  0.70985989  0.95882902    -0.24700
C668        C  0.18008618  0.68043848  0.95313162     0.27900
H669        H  0.10329556  0.70630781  0.98272598     0.13700
N670        N  0.13073333  0.76516779  0.99658991    -0.82000
H671        H  0.22357020  0.71151720  0.94980447     0.18500
N672        N  0.19684814  0.65202355  0.93810137    -0.80600
H673        H  0.10555736  0.76019414  0.00192599     0.34200
H674        H  0.14097676  0.77173745  0.02454740     0.38700
H675        H  0.22211265  0.65701364  0.93346866     0.34100
H676        H  0.19536551  0.63410258  0.96074089     0.30800
H677        H  0.08817781  0.63159962  0.03866686     0.34100
H678        H  0.12866045  0.64039409  0.03237927     0.30800
H679        H  0.11489566  0.57968334  0.85520150     0.38700
H680        H  0.11896745  0.61799293  0.83848645     0.34200
C681        C  0.50656455  0.00004780  0.74455639    -0.19600
C682        C  0.53000363  0.51645341  0.72039739     0.36700
C683        C  0.52635978  0.51833858  0.67795313    -0.25500
C684        C  0.00773937  0.00142169  0.66349413     0.03100
C685        C  0.02087562  0.02732432  0.68653927     0.27900
C686        C  0.02235467  0.02443198  0.72906132    -0.24700
N687        N  0.55513300  0.53585540  0.73994609    -0.82100
H688        H  0.54226241  0.53459027  0.66034709     0.13700
C689        C  0.00127620  0.00568913  0.61953504     0.05100
N690        N  0.03169961  0.05685383  0.66662349    -0.80600
H691        H  0.03199637  0.04467000  0.74666397     0.18500
C692        C  0.97706250  0.54045642  0.60998924    -0.25500
C693        C  0.96940352  0.54803336  0.56965783     0.36600
C694        C  0.98717265  0.01637765  0.53676883    -0.19500
C695        C  0.47273653  0.03843247  0.55714487    -0.24700
C696        C  0.47693269  0.03549361  0.59931781     0.27900
H697        H  0.96792484  0.55594483  0.63420641     0.13700
N698        N  0.94961190  0.57598113  0.56067529    -0.82000
H699        H  0.45687985  0.05731678  0.54504647     0.18500
N700        N  0.46085988  0.05780342  0.62663370    -0.80600
H701        H  0.96181568  0.59661620  0.57203686     0.34200
H702        H  0.92693890  0.57344053  0.57609107     0.38700
H703        H  0.44728783  0.07507868  0.61037631     0.34100
H704        H  0.44366777  0.04448541  0.64405976     0.30800
H705        H  0.04028686  0.07380846  0.68787804     0.34100
H706        H  0.05196860  0.05104468  0.64803891     0.30800
H707        H  0.57322594  0.51985942  0.75063090     0.38700
H708        H  0.56721729  0.55108476  0.71890466     0.34200
C709        C  0.50839836  0.99404557  0.06039377    -0.19600
C710        C  0.49565034  0.52251909  0.08442491     0.36700
C711        C  0.49262699  0.51829649  0.12687411    -0.25500
C712        C  0.00122538  0.99656248  0.14994290     0.03100
C713        C  0.99877752  0.96770110  0.12686925     0.27900
C714        C  0.00154793  0.96932446  0.08436737    -0.24700
N715        N  0.49242546  0.55454880  0.06703673    -0.82100
H716        H  0.48762561  0.53914967  0.14609923     0.13700
C717        C  0.99582732  0.99552893  0.19461750     0.03100
N718        N  0.99320734  0.93685223  0.14682845    -0.80600
H719        H  0.99918049  0.94713300  0.06672752     0.18500
C720        C  0.47179857  0.97104638  0.20437860    -0.25500
C721        C  0.46539776  0.96716999  0.24595682     0.36600
C722        C  0.00150639  0.48851520  0.28010598    -0.19500
C723        C  0.02674595  0.50841474  0.26368274    -0.24700
C724        C  0.03085476  0.51147268  0.22115347     0.27900
H725        H  0.45363792  0.96248563  0.18259444     0.13700
N726        N  0.43526479  0.95157350  0.25927507    -0.82000
H727        H  0.04305994  0.52156632  0.28403599     0.18500
N728        N  0.05669190  0.53195683  0.20444408    -0.80600
H729        H  0.43434713  0.92821628  0.24659167     0.34200
H730        H  0.41529064  0.96489049  0.24793109     0.38700
H731        H  0.07017692  0.54311361  0.22771828     0.34100
H732        H  0.07327022  0.51692180  0.18880009     0.30800
H733        H  0.99172157  0.91798558  0.12557006     0.34100
H734        H  0.01395064  0.93211999  0.16481066     0.30800
H735        H  0.47002207  0.55494688  0.05115325     0.38700
H736        H  0.49018940  0.57210382  0.08988820     0.34200
C737        C  0.27676796  0.76577663  0.77570623    -0.19600
C738        C  0.26463448  0.73631734  0.75940571     0.36700
C739        C  0.26141860  0.73292912  0.71705200    -0.25500
C740        C  0.27027068  0.75858099  0.69055387     0.03100
C741        C  0.28294473  0.78795884  0.70694060     0.27900
C742        C  0.28569977  0.79132205  0.74929346    -0.24700
N743        N  0.25448586  0.71026193  0.78582539    -0.82100
H744        H  0.25137896  0.71040657  0.70485779     0.13700
C745        C  0.26525671  0.75505636  0.64588002     0.03100
N746        N  0.29324215  0.81415173  0.68043231    -0.80600
H747        H  0.29533754  0.81383982  0.76194212     0.18500
C748        C  0.24547496  0.77780696  0.62556306    -0.25500
C749        C  0.24158420  0.77700490  0.58310701     0.36600
C750        C  0.25711096  0.75202821  0.56011966    -0.19500
C751        C  0.27612470  0.72861586  0.58094263    -0.24700
C752        C  0.28063401  0.73007457  0.62335523     0.27900
H753        H  0.23344805  0.79680886  0.64301221     0.13700
N754        N  0.22205126  0.80168867  0.56362014    -0.82000
H755        H  0.28821732  0.70938467  0.56400595     0.18500
N756        N  0.30130465  0.70667365  0.64349923    -0.80600
H757        H  0.21048301  0.81655574  0.58518286     0.34200
H758        H  0.23846514  0.81690510  0.54750039     0.38700
H759        H  0.31073543  0.68981619  0.62268282     0.34100
H760        H  0.32174004  0.71928249  0.65532662     0.30800
H761        H  0.30184318  0.83407414  0.69726432     0.34100
H762        H  0.31341130  0.80588570  0.66322293     0.30800
H763        H  0.26822124  0.68959827  0.77812387     0.38700
H764        H  0.22943859  0.70509925  0.78032356     0.34200
C765        C  0.31936309  0.72385834  0.83587755    -0.19600
C766        C  0.30927189  0.69542927  0.85683077     0.36700
C767        C  0.33093321  0.66895705  0.85977050    -0.25500
C768        C  0.36288743  0.67073254  0.84278958     0.03100
C769        C  0.37248473  0.69848227  0.82013175     0.27900
C770        C  0.35055313  0.72490206  0.81665962    -0.24700
N771        N  0.27761410  0.69417544  0.87700386    -0.82100
H772        H  0.32343134  0.64760058  0.87715365     0.13700
C773        C  0.38666247  0.64445572  0.85212239     0.03100
N774        N  0.40502168  0.70047005  0.80241083    -0.80600
H775        H  0.35877014  0.74705424  0.80143812     0.18500
C776        C  0.38901377  0.61768197  0.82613353    -0.25500
C777        C  0.40895575  0.59077550  0.83597166     0.36600
C778        C  0.42740063  0.59088382  0.87276099    -0.19500
C779        C  0.42538257  0.61837875  0.89820973    -0.24700
C780        C  0.40510168  0.64504032  0.88833153     0.27900
H781        H  0.37454301  0.61747347  0.79846687     0.13700
N782        N  0.41047485  0.56360517  0.80845391    -0.82000
H783        H  0.43932008  0.61895426  0.92625215     0.18500
N784        N  0.40253303  0.67246891  0.91531163    -0.80600
H785        H  0.39808021  0.56891196  0.78142398     0.34200
H786        H  0.39726229  0.54429289  0.82190010     0.38700
H787        H  0.41728227  0.66899757  0.94097990     0.34100
H788        H  0.41220893  0.69289057  0.90007662     0.30800
H789        H  0.41713807  0.72085156  0.81457519     0.34100
H790        H  0.40238279  0.70431359  0.77117484     0.30800
H791        H  0.26430724  0.67421509  0.86557573     0.38700
H792        H  0.28162171  0.69009224  0.90794043     0.34200
C793        C  0.24175961  0.81849350  0.83047724    -0.19600
C794        C  0.20980673  0.80617288  0.82164514     0.36700
C795        C  0.18198433  0.82647253  0.82599917    -0.25500
C796        C  0.18568833  0.85866964  0.83969531     0.03100
C797        C  0.21772544  0.87169974  0.84587194     0.27900
C798        C  0.24547730  0.85158276  0.84064479    -0.24700
N799        N  0.20519248  0.77247710  0.81162485    -0.82100
H800        H  0.15731287  0.81647303  0.82123999     0.13700
C801        C  0.15618000  0.87767898  0.85186482     0.03100
N802        N  0.22168474  0.90441867  0.86088201    -0.80600
H803        H  0.26994172  0.86097396  0.84799523     0.18500
C804        C  0.14526583  0.87629150  0.89243406    -0.25500
C805        C  0.11974661  0.89671570  0.90667175     0.36600
C806        C  0.10540159  0.91951340  0.87972409    -0.19500
C807        C  0.11582974  0.91991657  0.83873436    -0.24700
C808        C  0.14093848  0.89916188  0.82453671     0.27900
H809        H  0.15715117  0.85957718  0.91323087     0.13700
N810        N  0.10945834  0.89515699  0.94856427    -0.82000
H811        H  0.10440664  0.93666321  0.81756346     0.18500
N812        N  0.15107100  0.89984010  0.78254513    -0.80600
H813        H  0.12426420  0.87881423  0.96469883     0.34200
H814        H  0.08541698  0.88532786  0.94935442     0.38700
H815        H  0.13698959  0.91669073  0.76625758     0.34100
H816        H  0.17567207  0.90813400  0.78119227     0.30800
H817        H  0.24678111  0.90982206  0.86568766     0.34100
H818        H  0.21356337  0.92040264  0.83830510     0.30800
H819        H  0.18937062  0.76191878  0.83338687     0.38700
H820        H  0.19340882  0.77125302  0.78343927     0.34200
N821        N  0.72963851  0.21640901  0.82433626    -0.03200
C822        C  0.70738260  0.23166880  0.84888834    -0.00600
C823        C  0.70105326  0.21301413  0.88313010    -0.23500
C824        C  0.72012955  0.18561749  0.87987467    -0.23700
C825        C  0.73792496  0.18842492  0.84396183    -0.00700
H826        H  0.68512157  0.21931636  0.90846461     0.13100
H827        H  0.72232676  0.16668050  0.90251278     0.13100
Zn828      Zn  0.97088619  0.48287950  0.87271547     1.49700
Zn829      Zn  0.02173663  0.46138399  0.94076692     1.49400
Zn830      Zn  0.54698193  0.49867917  0.86666215     1.49100
Zn831      Zn  0.99750452  0.03477121  0.94019052     1.49500
O832        O  0.00791767  0.49699952  0.90598255    -1.83800
O833        O  0.94994962  0.44086119  0.89471649    -0.74400
O834        O  0.54728212  0.42804698  0.91828937    -0.74300
O835        O  0.53404545  0.50556649  0.80797109    -0.73800
O836        O  0.98557589  0.42710119  0.94305005    -0.74500
O837        O  0.98456489  0.47905307  0.81347094    -0.74100
O838        O  0.57104617  0.45578988  0.86792060    -0.74600
O839        O  0.54759023  0.05697558  0.93757420    -0.74000
O840        O  0.02596992  0.47691098  0.99891539    -0.74800
O841        O  0.57786029  0.03276082  0.88972212    -0.74200
O842        O  0.99354365  0.02196934  0.99945117    -0.74700
O843        O  0.95604252  0.05712066  0.91877986    -0.74600
O844        O  0.93981686  0.02307251  0.87003143    -0.74300
C845        C  0.95870629  0.42209486  0.92372564     0.77400
C846        C  0.56882584  0.43012869  0.88974757     0.77900
C847        C  0.00568572  0.49622253  0.79351151     0.76900
C848        C  0.57488519  0.05368568  0.91819151     0.77300
C849        C  0.01051628  0.49919022  0.01829967     0.78400
C850        C  0.93660319  0.04968064  0.88964476     0.77500
N851        N  0.78708898  0.21459111  0.99496503    -0.03200
C852        C  0.77554060  0.18890773  0.97292455    -0.00600
C853        C  0.79102610  0.18809308  0.93546423    -0.23500
C854        C  0.81208611  0.21439361  0.93347182    -0.23700
C855        C  0.80927340  0.23023207  0.97020085    -0.00700
H856        H  0.78708231  0.17021754  0.91207629     0.13100
H857        H  0.82797431  0.22117768  0.90814010     0.13100
N858        N  0.48227598  0.97345579  0.31725454    -0.03200
C859        C  0.95405362  0.99107003  0.34368720    -0.00600
C860        C  0.94782338  0.97089837  0.37658372    -0.23500
C861        C  0.47158633  0.44097790  0.37478282    -0.23700
C862        C  0.48934015  0.44637235  0.33939334    -0.00700
H863        H  0.92869876  0.97387378  0.39939669     0.13100
H864        H  0.47781026  0.42429922  0.39906624     0.13100
Zn865      Zn  0.74391489  0.28766615  0.44369400     1.49700
Zn866      Zn  0.76441603  0.21441992  0.44403471     1.49400
Zn867      Zn  0.72248584  0.24159683  0.37147803     1.49100
Zn868      Zn  0.79772765  0.26142877  0.37843132     1.49500
O869        O  0.75736138  0.25168760  0.40934968    -1.83800
O870        O  0.73838026  0.27278887  0.50285819    -0.74400
O871        O  0.72385097  0.18538084  0.44392536    -0.74300
O872        O  0.69193083  0.28004107  0.36638859    -0.73800
O873        O  0.76938096  0.22822153  0.50248431    -0.74500
O874        O  0.70306334  0.31057237  0.42031561    -0.74100
O875        O  0.69485874  0.20305175  0.39145024    -0.74600
O876        O  0.78790280  0.26431654  0.31789111    -0.74000
O877        O  0.80355882  0.18848175  0.42344900    -0.74800
O878        O  0.74189631  0.23405038  0.31565775    -0.74200
O879        O  0.82903359  0.22282633  0.38094404    -0.74700
O880        O  0.81944187  0.30299098  0.40050366    -0.74600
O881        O  0.78131933  0.32029417  0.44462494    -0.74300
C882        C  0.75363184  0.25022804  0.52192760     0.77400
C883        C  0.69822173  0.18368961  0.42158524     0.77900
C884        C  0.68641055  0.30519343  0.38799514     0.76900
C885        C  0.76657629  0.24779362  0.29781031     0.77300
C886        C  0.82683008  0.19492499  0.39805711     0.78400
C887        C  0.80947064  0.32354389  0.42703774     0.77500
N888        N  0.48305884  0.02117998  0.48724161    -0.03200
C889        C  0.94428426  0.52339374  0.47763613    -0.00600
C890        C  0.93702861  0.54242550  0.44424325    -0.23500
C891        C  0.47225430  0.05434464  0.43426300    -0.23700
C892        C  0.49336799  0.04795257  0.46612398    -0.00700
H893        H  0.91778751  0.53790152  0.42217721     0.13100
H894        H  0.47449515  0.07392695  0.41231072     0.13100
C895        C  0.67114444  0.15970646  0.43147543    -0.19600
C896        C  0.67008400  0.14173835  0.46851964     0.36700
C897        C  0.64200756  0.12227910  0.47787061    -0.25500
C898        C  0.61525846  0.11998623  0.45102864     0.03100
C899        C  0.61685464  0.13653238  0.41347609     0.27900
C900        C  0.64455163  0.15631290  0.40422346    -0.24700
N901        N  0.69690244  0.14382787  0.49708030    -0.82100
H902        H  0.64069113  0.10921766  0.50652838     0.13700
C903        C  0.58502980  0.10105796  0.46261593     0.03100
N904        N  0.59007208  0.13334332  0.38500821    -0.80600
H905        H  0.64508916  0.16945642  0.37561638     0.18500
C906        C  0.55501877  0.11775892  0.46774664    -0.25500
C907        C  0.52484018  0.10072271  0.47260375     0.36600
C908        C  0.52472999  0.06631718  0.47249607    -0.19500
C909        C  0.55500019  0.04960395  0.47046815    -0.24700
C910        C  0.58525700  0.06668541  0.46520232     0.27900
H911        H  0.55505469  0.14418859  0.46630049     0.13700
N912        N  0.49408887  0.11812975  0.47613149    -0.82000
H913        H  0.55479213  0.02318204  0.46978127     0.18500
N914        N  0.61590304  0.04928406  0.46042392    -0.80600
H915        H  0.49838945  0.14332189  0.47536233     0.34200
H916        H  0.48393619  0.11276310  0.50473893     0.38700
H917        H  0.61176367  0.02413628  0.46303113     0.34100
H918        H  0.62461934  0.05348616  0.43084198     0.30800
H919        H  0.59488475  0.14721981  0.35887725     0.34100
H920        H  0.58907565  0.10895033  0.37580206     0.30800
H921        H  0.71740145  0.13228375  0.48395860     0.38700
H922        H  0.69119784  0.13071277  0.52356168     0.34200
C923        C  0.92650271  0.49256628  0.48656953    -0.19600
C924        C  0.89163527  0.49250324  0.49011761     0.36700
C925        C  0.87394753  0.46312309  0.48538916    -0.25500
C926        C  0.89055949  0.43385584  0.47715084     0.03100
C927        C  0.92562780  0.43353651  0.47669456     0.27900
C928        C  0.94330394  0.46299408  0.48151429    -0.24700
N929        N  0.87435060  0.52268678  0.49622683    -0.82100
H930        H  0.84702994  0.46336631  0.48582829     0.13700
C931        C  0.87080644  0.40460500  0.46547858     0.03100
N932        N  0.94300187  0.40354736  0.46958692    -0.80600
H933        H  0.97002713  0.46323020  0.47770806     0.18500
C934        C  0.87597299  0.39059321  0.42705464    -0.25500
C935        C  0.85625488  0.36433958  0.41345164     0.36600
C936        C  0.83096781  0.35157119  0.43909150    -0.19500
C937        C  0.82587858  0.36579794  0.47755423    -0.24700
C938        C  0.84554352  0.39204500  0.49101291     0.27900
H939        H  0.89493049  0.40082838  0.40712384     0.13700
N940        N  0.86134384  0.35126230  0.37340873    -0.82000
H941        H  0.80666446  0.35615731  0.49755226     0.18500
N942        N  0.84004511  0.40596646  0.53054663    -0.80600
H943        H  0.88115616  0.36316630  0.35876030     0.34200
H944        H  0.84011162  0.35632603  0.35643643     0.38700
H945        H  0.82037526  0.39408193  0.54549187     0.34100
H946        H  0.86131795  0.40179917  0.54781372     0.30800
H947        H  0.96869143  0.40753965  0.46973689     0.34100
H948        H  0.93763532  0.38790821  0.49395853     0.30800
H949        H  0.88340415  0.02987875  0.50917707     0.38700
H950        H  0.84870137  0.51860299  0.49773113     0.34200
C951        C  0.52130598  0.42997680  0.33105904    -0.19600
C952        C  0.52169243  0.39675351  0.32032450     0.36700
C953        C  0.55091264  0.37858834  0.32573577    -0.25500
C954        C  0.57970480  0.39307803  0.34187728     0.03100
C955        C  0.58012965  0.42707963  0.34901052     0.27900
C956        C  0.55076389  0.44512970  0.34396920    -0.24700
N957        N  0.49179394  0.38127349  0.30615831    -0.82100
H958        H  0.55068100  0.35263715  0.31948278     0.13700
C959        C  0.60818394  0.37188033  0.35353034     0.03100
N960        N  0.61004915  0.44284896  0.36267102    -0.80600
H961        H  0.55029468  0.47065711  0.35249773     0.18500
C962        C  0.62268169  0.35146777  0.32434616    -0.25500
C963        C  0.64856296  0.33001908  0.33450265     0.36600
C964        C  0.66003813  0.32850780  0.37517863    -0.19500
C965        C  0.64568482  0.34928064  0.40421865    -0.24700
C966        C  0.61967978  0.37055492  0.39401422     0.27900
H967        H  0.61381222  0.35242627  0.29334115     0.13700
N968        N  0.66332114  0.31005902  0.30345590    -0.82000
H969        H  0.65411247  0.34826420  0.43539561     0.18500
N970        N  0.60427976  0.39018165  0.42490761    -0.80600
H971        H  0.65157856  0.31363740  0.27555749     0.34200
H972        H  0.68792642  0.31790533  0.29956660     0.38700
H973        H  0.57964404  0.38223242  0.42809159     0.34100
H974        H  0.61563064  0.38647816  0.45301367     0.30800
H975        H  0.60614976  0.46781951  0.36688291     0.34100
H976        H  0.62779387  0.44070565  0.33949881     0.30800
H977        H  0.98489479  0.39408790  0.32411591     0.38700
H978        H  0.99898641  0.36584640  0.35662115     0.34200
C979        C  0.93648621  0.02240232  0.33751988    -0.19600
C980        C  0.95414726  0.05218121  0.33457200     0.36700
C981        C  0.93742255  0.08181971  0.34077657    -0.25500
C982        C  0.90334137  0.08207950  0.35012938     0.03100
C983        C  0.88511078  0.05252463  0.34918163     0.27900
C984        C  0.90189921  0.02297864  0.34315696    -0.24700
N985        N  0.98938314  0.05233045  0.32825034    -0.82100
H986        H  0.95147164  0.10448696  0.34080368     0.13700
C987        C  0.88727980  0.11275993  0.36391581     0.03100
N988        N  0.84979711  0.05261133  0.35603656    -0.80600
H989        H  0.88822948  0.00012609  0.34508610     0.18500
C990        C  0.88458096  0.13931705  0.33723764    -0.25500
C991        C  0.86613785  0.16716169  0.34807455     0.36600
C992        C  0.85045817  0.16854512  0.38681816    -0.19500
C993        C  0.85484125  0.14253998  0.41409283    -0.24700
C994        C  0.87329490  0.11493234  0.40324036     0.27900
H995        H  0.89565541  0.13767534  0.30720619     0.13700
N996        N  0.86218735  0.19321894  0.31918059    -0.82000
H997        H  0.84342773  0.14354509  0.44398004     0.18500
N998        N  0.87775919  0.08888729  0.43195962    -0.80600
H999        H  0.87597741  0.18870195  0.29276523     0.34200
H1000       H  0.83724044  0.19344096  0.31050971     0.38700
H1001       H  0.90297393  0.08853379  0.43922528     0.34100
H1002       H  0.86501504  0.09367813  0.45906225     0.30800
H1003       H  0.84014307  0.02886647  0.35492833     0.34100
H1004       H  0.83904350  0.06547724  0.33206322     0.30800
H1005       H  0.49902763  0.05945176  0.30027239     0.38700
H1006       H  0.50176132  0.05674850  0.35138699     0.34200
C1007       C  0.78310450  0.21944640  0.03813973    -0.19600
C1008       C  0.79060794  0.19425102  0.06571518     0.36700
C1009       C  0.78790136  0.19968023  0.10765994    -0.25500
C1010       C  0.77779824  0.23001213  0.12288198     0.03100
C1011       C  0.77020914  0.25536204  0.09535714     0.27900
C1012       C  0.77305034  0.24980506  0.05324385    -0.24700
N1013       N  0.80190761  0.16334008  0.05116649    -0.82100
H1014       H  0.79410123  0.18017063  0.12851609     0.13700
C1015       C  0.77493110  0.23459378  0.16764703     0.03100
N1016       N  0.75932892  0.28646725  0.11027392    -0.80600
H1017       H  0.76687630  0.26899293  0.03213478     0.18500
C1018       C  0.79341173  0.25928884  0.18678652    -0.25500
C1019       C  0.79131550  0.26408739  0.22904490     0.36600
C1020       C  0.77029930  0.24382175  0.25295323    -0.19500
C1021       C  0.75210142  0.21891827  0.23358806    -0.24700
C1022       C  0.75410152  0.21416941  0.19136416     0.27900
H1023       H  0.80969579  0.27489662  0.16880599     0.13700
N1024       N  0.81025276  0.28985466  0.24725075    -0.82000
H1025       H  0.73610440  0.20296124  0.25144130     0.18500
N1026       N  0.73478451  0.18884766  0.17238168    -0.80600
H1027       H  0.80340936  0.31185714  0.23360733     0.34200
H1028       H  0.83536446  0.28591661  0.24073041     0.38700
H1029       H  0.72094570  0.17578416  0.19407143     0.34100
H1030       H  0.71769254  0.20008948  0.15321434     0.30800
H1031       H  0.75493851  0.30248326  0.08613140     0.34100
H1032       H  0.73654102  0.28279432  0.12508660     0.30800
H1033       H  0.78559003  0.14530776  0.06205610     0.38700
H1034       H  0.82534555  0.15899462  0.06347207     0.34200
C1035       C  0.93704401  0.39414496  0.93586414    -0.19600
C1036       C  0.93391312  0.38431571  0.97705524     0.36700
C1037       C  0.91311765  0.35772544  0.98733309    -0.25500
C1038       C  0.89555541  0.34070764  0.95739293     0.03100
C1039       C  0.89873470  0.35031569  0.91634201     0.27900
C1040       C  0.91912039  0.37718508  0.90603428    -0.24700
N1041       N  0.95130960  0.40173608  0.00839716    -0.82100
H1042       H  0.91041040  0.35027789  0.01882044     0.13700
C1043       C  0.87341465  0.31304732  0.96911233     0.03100
N1044       N  0.88129355  0.33258115  0.88532699    -0.80600
H1045       H  0.92152352  0.38454564  0.87448659     0.18500
C1046       C  0.83896385  0.31723558  0.96565187    -0.25500
C1047       C  0.81696960  0.29067548  0.96975965     0.36600
C1048       C  0.82933837  0.25958029  0.97923525    -0.19500
C1049       C  0.86355729  0.25571113  0.98510980    -0.24700
C1050       C  0.88588125  0.28187855  0.97960267     0.27900
H1051       H  0.82926820  0.34089204  0.95720037     0.13700
N1052       N  0.78241526  0.29483552  0.96112720    -0.82000
H1053       H  0.87328330  0.23153090  0.99078682     0.18500
N1054       N  0.92085205  0.27533460  0.98262566    -0.80600
H1055       H  0.78034387  0.30344721  0.93131504     0.34200
H1056       H  0.77316420  0.31280648  0.98056553     0.38700
H1057       H  0.92695480  0.25872773  0.95967033     0.34100
H1058       H  0.93531160  0.29610629  0.97729866     0.30800
H1059       H  0.88616754  0.34274751  0.85669380     0.34100
H1060       H  0.89073467  0.30888233  0.88476093     0.30800
H1061       H  0.94176272  0.42537633  0.00945545     0.38700
H1062       H  0.94656884  0.39121609  0.03687063     0.34200
C1063       C  0.60408852  0.07349362  0.93092342    -0.19600
C1064       C  0.62972151  0.08236744  0.90355620     0.36700
C1065       C  0.65750806  0.09981803  0.91764168    -0.25500
C1066       C  0.66056535  0.10829567  0.95880003     0.03100
C1067       C  0.63511747  0.09942229  0.98632866     0.27900
C1068       C  0.60697392  0.08246185  0.97206088    -0.24700
N1069       N  0.62739618  0.07430324  0.86132889    -0.82100
H1070       H  0.67672644  0.10702102  0.89621021     0.13700
C1071       C  0.69046013  0.12683349  0.97211130     0.03100
N1072       N  0.63824907  0.10719231  0.02870901    -0.80600
H1073       H  0.58762915  0.07537079  0.99345799     0.18500
C1074       C  0.68721322  0.15913132  0.98572319    -0.25500
C1075       C  0.71537621  0.17921930  0.99103227     0.36600
C1076       C  0.74724826  0.16676526  0.98284078    -0.19500
C1077       C  0.75048696  0.13356520  0.97305355    -0.24700
C1078       C  0.72242478  0.11346101  0.96769960     0.27900
H1079       H  0.66268454  0.16943826  0.98958893     0.13700
N1080       N  0.71132281  0.21284724  0.00151907    -0.82000
H1081       H  0.77497913  0.12391016  0.96674622     0.18500
N1082       N  0.72613750  0.07991156  0.95596809    -0.80600
H1083       H  0.69619055  0.22377621  0.97977774     0.34200
H1084       H  0.69894029  0.21383605  0.02951753     0.38700
H1085       H  0.75130416  0.07397605  0.95335641     0.34100
H1086       H  0.71631179  0.06547843  0.97942582     0.30800
H1087       H  0.61740656  0.09892225  0.04497877     0.34100
H1088       H  0.65858227  0.09431075  0.03989947     0.30800
H1089       H  0.64808373  0.06031321  0.85351639     0.38700
H1090       H  0.62857015  0.09600055  0.84455760     0.34200
C1091       C  0.00443550  0.49748300  0.74817393    -0.19600
C1092       C  0.99757142  0.97015724  0.72580750     0.36700
C1093       C  0.99693426  0.97284939  0.68311956    -0.25500
C1094       C  0.50214515  0.49990102  0.65787786     0.03100
C1095       C  0.48151475  0.47842162  0.68023761     0.27900
C1096       C  0.48451329  0.47700323  0.72279628    -0.24700
N1097       N  0.98562294  0.94079595  0.74517828    -0.82100
H1098       H  0.98659815  0.95316109  0.66513118     0.13700
C1099       C  0.49753200  0.50488218  0.61370338     0.05100
N1100       N  0.45792342  0.45787840  0.65961480    -0.80600
H1101       H  0.46814050  0.46088576  0.73990956     0.18500
C1102       C  0.51374441  0.98962791  0.58761191    -0.25500
C1103       C  0.50978275  0.99296661  0.54535217     0.36600
C1104       C  0.49006900  0.51506821  0.52956712    -0.19500
C1105       C  0.99993245  0.50046567  0.54717398    -0.24700
C1106       C  0.00756924  0.49263844  0.58781744     0.27900
H1107       H  0.52968864  0.97067629  0.59937781     0.13700
N1108       N  0.52746206  0.97208517  0.51813852    -0.82000
H1109       H  0.00904378  0.48535273  0.52266786     0.18500
N1110       N  0.02681856  0.46425353  0.59724728    -0.80600
H1111       H  0.52127728  0.94793570  0.52548031     0.34200
H1112       H  0.55286687  0.97524559  0.52342729     0.38700
H1113       H  0.03333657  0.45191474  0.57061532     0.34100
H1114       H  0.04902083  0.47222159  0.61037686     0.30800
H1115       H  0.44514852  0.44297978  0.68040536     0.34100
H1116       H  0.44015753  0.47280906  0.64616329     0.30800
H1117       H  0.96292473  0.94620410  0.75912678     0.38700
H1118       H  0.98030390  0.92293140  0.72347785     0.34200
C1119       C  0.01179592  0.49911743  0.06369433    -0.19600
C1120       C  0.00963843  0.02815501  0.08743412     0.36700
C1121       C  0.00721952  0.02642498  0.13016404    -0.25500
C1122       C  0.49507296  0.48733262  0.14478282     0.03100
C1123       C  0.50139689  0.46004398  0.12018091     0.27900
C1124       C  0.50491952  0.46416831  0.07798760    -0.24700
N1125       N  0.01620363  0.05893540  0.06775265    -0.82100
H1126       H  0.00919694  0.04850318  0.14807580     0.13700
C1127       C  0.49011373  0.48347303  0.18927930     0.03100
N1128       N  0.50408834  0.42817908  0.13823696    -0.80600
H1129       H  0.50958777  0.44284245  0.05948950     0.18500
C1130       C  0.98419237  0.47430510  0.21172891    -0.25500
C1131       C  0.98005377  0.47157837  0.25391390     0.36600
C1132       C  0.48878165  0.97812971  0.27457343    -0.19500
C1133       C  0.51859621  0.99252939  0.26105502    -0.24700
C1134       C  0.52504079  0.99664831  0.21912937     0.27900
H1135       H  0.96744717  0.46110682  0.19188674     0.13700
N1136       N  0.95379954  0.45171938  0.27040061    -0.82000
H1137       H  0.53660280  0.00067947  0.28319599     0.18500
N1138       N  0.55531823  0.01193081  0.20527882    -0.80600
H1139       H  0.95686187  0.42793450  0.25965963     0.34200
H1140       H  0.93127699  0.46052573  0.25935011     0.38700
H1141       H  0.56994420  0.01880046  0.23002092     0.34100
H1142       H  0.56882561  0.99448950  0.18912758     0.30800
H1143       H  0.50854289  0.41055970  0.11596796     0.34100
H1144       H  0.52488950  0.42844825  0.15711070     0.30800
H1145       H  0.99462682  0.06574465  0.05253043     0.38700
H1146       H  0.02057870  0.07713693  0.08932510     0.34200
C1147       C  0.73519977  0.22279502  0.78174148    -0.19600
C1148       C  0.72431846  0.19999754  0.75268857     0.36700
C1149       C  0.72878237  0.20643303  0.71122172    -0.25500
C1150       C  0.74413655  0.23539098  0.69779539     0.03100
C1151       C  0.75474305  0.25861118  0.72682326     0.27900
C1152       C  0.74994018  0.25214186  0.76865530    -0.24700
N1153       N  0.70775323  0.17059331  0.76536571    -0.82100
H1154       H  0.71991272  0.18875706  0.68928698     0.13700
C1155       C  0.74874858  0.24060089  0.65322141     0.03100
N1156       N  0.77060505  0.28839997  0.71373040    -0.80600
H1157       H  0.75791034  0.26975432  0.79113212     0.18500
C1158       C  0.73503725  0.26808531  0.63433595    -0.25500
C1159       C  0.73715814  0.27260482  0.59186196     0.36600
C1160       C  0.75267720  0.24855814  0.56743065    -0.19500
C1161       C  0.76697970  0.22142333  0.58682449    -0.24700
C1162       C  0.76541198  0.21734556  0.62921515     0.27900
H1163       H  0.72219960  0.28590620  0.65282062     0.13700
N1164       N  0.72337816  0.30139681  0.57373355    -0.82000
H1165       H  0.77928220  0.20293735  0.56885126     0.18500
N1166       N  0.78056753  0.18950943  0.64805178    -0.80600
H1167       H  0.71196083  0.31592564  0.59577544     0.34200
H1168       H  0.74317183  0.31521724  0.56193830     0.38700
H1169       H  0.79167585  0.17455605  0.62622637     0.34100
H1170       H  0.79966031  0.19813164  0.66665664     0.30800
H1171       H  0.77679672  0.30283405  0.73875984     0.34100
H1172       H  0.79295642  0.28220442  0.69944078     0.30800
H1173       H  0.72114340  0.15079951  0.75402171     0.38700
H1174       H  0.68415239  0.17013195  0.75228743     0.34200
C1175       C  0.76731907  0.16779732  0.83502808    -0.19600
C1176       C  0.76617140  0.13397969  0.84318485     0.36700
C1177       C  0.79573847  0.11657430  0.84818322    -0.25500
C1178       C  0.82664883  0.13228396  0.84498379     0.03100
C1179       C  0.82806149  0.16536869  0.83342489     0.27900
C1180       C  0.79838777  0.18289912  0.82824320    -0.24700
N1181       N  0.73492091  0.11750827  0.84820538    -0.82100
H1182       H  0.79452367  0.09094261  0.85634209     0.13700
C1183       C  0.85685895  0.11395799  0.85628517     0.03100
N1184       N  0.85953952  0.18151418  0.82882455    -0.80600
H1185       H  0.79977502  0.20891572  0.82242847     0.18500
C1186       C  0.87472889  0.09740416  0.82620596    -0.25500
C1187       C  0.90114035  0.07682361  0.83653595     0.36600
C1188       C  0.90988887  0.07253632  0.87773266    -0.19500
C1189       C  0.89276036  0.09016785  0.90770145    -0.24700
C1190       C  0.86619104  0.11072181  0.89738118     0.27900
H1191       H  0.86773069  0.09998605  0.79461443     0.13700
N1192       N  0.91932886  0.06065104  0.80500127    -0.82000
H1193       H  0.89955173  0.08724476  0.93930995     0.18500
N1194       N  0.84814572  0.12779774  0.92846597    -0.80600
H1195       H  0.92921444  0.07844913  0.78544984     0.34200
H1196       H  0.90263758  0.04632166  0.78844427     0.38700
H1197       H  0.85750036  0.12219941  0.95720376     0.34100
H1198       H  0.85244223  0.15273412  0.92392197     0.30800
H1199       H  0.86033739  0.20107357  0.84913161     0.34100
H1200       H  0.86093742  0.19101919  0.79933591     0.30800
H1201       H  0.73370298  0.09874869  0.82678023     0.38700
H1202       H  0.73455315  0.10681314  0.87706779     0.34200
C1203       C  0.69521765  0.26559484  0.84527007    -0.19600
C1204       C  0.67253444  0.27509830  0.81517863     0.36700
C1205       C  0.65516962  0.30461574  0.81954316    -0.25500
C1206       C  0.65986456  0.32438936  0.85389499     0.03100
C1207       C  0.68423381  0.31604150  0.88249201     0.27900
C1208       C  0.70171522  0.28678416  0.87783217    -0.24700
N1209       N  0.66548819  0.25398491  0.78169410    -0.82100
H1210       H  0.63652638  0.31110326  0.79739112     0.13700
C1211       C  0.63672618  0.35156694  0.86232261     0.03100
N1212       N  0.68996905  0.33662704  0.91710715    -0.80600
H1213       H  0.71921248  0.27950032  0.90100970     0.18500
C1214       C  0.61244938  0.34734950  0.89265605    -0.25500
C1215       C  0.58979780  0.37222495  0.90214507     0.36600
C1216       C  0.59183156  0.40244760  0.88110274    -0.19500
C1217       C  0.61651454  0.40644566  0.85074139    -0.24700
C1218       C  0.63896935  0.38138072  0.84128235     0.27900
H1219       H  0.61100281  0.32425753  0.90874809     0.13700
N1220       N  0.56485198  0.36663304  0.93292669    -0.82000
H1221       H  0.61855577  0.42933438  0.83434295     0.18500
N1222       N  0.66420713  0.38613768  0.81067500    -0.80600
H1223       H  0.56799712  0.34384064  0.94668655     0.34200
H1224       H  0.54184449  0.36564343  0.91839133     0.38700
H1225       H  0.66247549  0.40944009  0.79785801     0.34100
H1226       H  0.68726617  0.38514355  0.82506353     0.30800
H1227       H  0.70840282  0.32679595  0.93563256     0.34100
H1228       H  0.69920245  0.35896033  0.90628993     0.30800
H1229       H  0.64010432  0.24837510  0.78227784     0.38700
H1230       H  0.67063603  0.26682947  0.75485005     0.34200
N1231       N  0.73165980  0.71948601  0.81449233    -0.03200
C1232       C  0.70982632  0.73532965  0.83898878    -0.00600
C1233       C  0.70563088  0.71873570  0.87520613    -0.23500
C1234       C  0.72546186  0.69177142  0.87309843    -0.23700
C1235       C  0.74147302  0.69286524  0.83585772    -0.00700
H1236       H  0.69005722  0.72580163  0.90056247     0.13100
H1237       H  0.72868260  0.67374196  0.89663751     0.13100
Zn1238     Zn  0.97196154  0.98543800  0.87181607     1.49700
Zn1239     Zn  0.01895271  0.96097939  0.94261816     1.49400
Zn1240     Zn  0.54578554  0.99848319  0.86796000     1.49100
Zn1241     Zn  0.99545608  0.53423124  0.93941909     1.49500
O1242       O  0.00866569  0.99732533  0.90696254    -1.83800
O1243       O  0.94825131  0.94418442  0.89220635    -0.74400
O1244       O  0.54372759  0.92532713  0.91503331    -0.74300
O1245       O  0.53263586  0.00720294  0.80951170    -0.73800
O1246       O  0.98070762  0.92913539  0.94335857    -0.74500
O1247       O  0.98758378  0.98021706  0.81363724    -0.74100
O1248       O  0.56882097  0.95495576  0.86726691    -0.74600
O1249       O  0.55042583  0.55773475  0.93598017    -0.74000
O1250       O  0.02247754  0.97588331  0.00105028    -0.74800
O1251       O  0.57891785  0.53326688  0.88677986    -0.74200
O1252       O  0.99377415  0.52087773  0.99946588    -0.74700
O1253       O  0.95244868  0.55513289  0.91756776    -0.74600
O1254       O  0.93667609  0.51829161  0.87218712    -0.74300
C1255       C  0.95480593  0.92522673  0.92190038     0.77400
C1256       C  0.56541501  0.92817602  0.88674214     0.77900
C1257       C  0.01023542  0.99593143  0.79444088     0.76900
C1258       C  0.57710307  0.55414088  0.91539688     0.77300
C1259       C  0.00784312  0.99929307  0.01921932     0.78400
C1260       C  0.93246123  0.54559484  0.88978251     0.77500
N1261       N  0.79508216  0.70870535  0.98686522    -0.03200
C1262       C  0.78431232  0.68299197  0.96433676    -0.00600
C1263       C  0.79958334  0.68331583  0.92671081    -0.23500
C1264       C  0.81932619  0.71065231  0.92502829    -0.23700
C1265       C  0.81604797  0.72588678  0.96213970    -0.00700
H1266       H  0.79519073  0.66637499  0.90236084     0.13100
H1267       H  0.83358084  0.71919963  0.89905393     0.13100
N1268       N  0.47442322  0.46952370  0.31637449    -0.03200
C1269       C  0.97071692  0.49919497  0.34390084    -0.00600
C1270       C  0.96488186  0.48272083  0.37984218    -0.23500
C1271       C  0.47109456  0.94132601  0.37128775    -0.23700
C1272       C  0.49212423  0.94703880  0.33873571    -0.00700
H1273       H  0.94533144  0.48725380  0.40154945     0.13100
H1274       H  0.47347142  0.92244488  0.39406771     0.13100
Zn1275     Zn  0.74610056  0.78432927  0.43467788     1.49700
Zn1276     Zn  0.76602747  0.71139816  0.43416888     1.49400
Zn1277     Zn  0.72189243  0.73888328  0.36288591     1.49100
Zn1278     Zn  0.79788706  0.75869072  0.36808327     1.49500
O1279       O  0.75803801  0.74849010  0.39960249    -1.83800
O1280       O  0.74101206  0.76980261  0.49331248    -0.74400
O1281       O  0.72621354  0.68173004  0.43393032    -0.74300
O1282       O  0.69160068  0.77801323  0.36022808    -0.73800
O1283       O  0.77169719  0.72511144  0.49269589    -0.74500
O1284       O  0.70588276  0.80822038  0.41340925    -0.74100
O1285       O  0.69518192  0.69938576  0.38317190    -0.74600
O1286       O  0.78690843  0.76092583  0.30802992    -0.74000
O1287       O  0.80525473  0.68609099  0.41333025    -0.74800
O1288       O  0.74002315  0.73207255  0.30587430    -0.74200
O1289       O  0.82969459  0.72072062  0.37050303    -0.74700
O1290       O  0.82039622  0.80030107  0.38927254    -0.74600
O1291       O  0.78361569  0.81640467  0.43550959    -0.74300
C1292       C  0.75662551  0.74750776  0.51222951     0.77400
C1293       C  0.70007112  0.67957373  0.41258038     0.77900
C1294       C  0.68791067  0.80336333  0.38217021     0.76900
C1295       C  0.76512239  0.74504209  0.28792628     0.77300
C1296       C  0.82830970  0.69290138  0.38783312     0.78400
C1297       C  0.81122461  0.82020777  0.41695619     0.77500
N1298       N  0.48446434  0.52005337  0.48693563    -0.03200
C1299       C  0.95176043  0.01609986  0.47546151    -0.00600
C1300       C  0.94758067  0.03647722  0.44246369    -0.23500
C1301       C  0.47860105  0.55085100  0.43075584    -0.23700
C1302       C  0.49792044  0.54453131  0.46433451    -0.00700
H1303       H  0.92756901  0.03562157  0.42084927     0.13100
H1304       H  0.48370828  0.56844039  0.40690973     0.13100
C1305       C  0.67429152  0.65441676  0.42317099    -0.19600
C1306       C  0.67592971  0.63520601  0.45921028     0.36700
C1307       C  0.64881199  0.61509711  0.47030924    -0.25500
C1308       C  0.62072991  0.61278229  0.44568569     0.03100
C1309       C  0.61976533  0.63016698  0.40875550     0.27900
C1310       C  0.64632922  0.65099431  0.39804287    -0.24700
N1311       N  0.70465068  0.63649958  0.48494059    -0.82100
H1312       H  0.64943248  0.60125424  0.49840554     0.13700
C1313       C  0.59157128  0.59323016  0.45922622     0.03100
N1314       N  0.59138860  0.62700680  0.38268831    -0.80600
H1315       H  0.64486710  0.66497892  0.37013867     0.18500
C1316       C  0.56339758  0.61010353  0.47276322    -0.25500
C1317       C  0.53293189  0.59402771  0.47816194     0.36600
C1318       C  0.53053193  0.56024522  0.47066253    -0.19500
C1319       C  0.55919992  0.54285833  0.46022230    -0.24700
C1320       C  0.58977818  0.55891869  0.45422119     0.27900
H1321       H  0.56467786  0.63632221  0.47690732     0.13700
N1322       N  0.50452752  0.61271807  0.48993197    -0.82000
H1323       H  0.55731993  0.51701454  0.45362405     0.18500
N1324       N  0.61777232  0.53987567  0.44126306    -0.80600
H1325       H  0.49440215  0.60229593  0.51633040     0.34200
H1326       H  0.48678682  0.61129534  0.46695782     0.38700
H1327       H  0.61227551  0.53028382  0.41264742     0.34100
H1328       H  0.63918003  0.55413470  0.43773390     0.30800
H1329       H  0.59433797  0.64156586  0.35675153     0.34100
H1330       H  0.59036899  0.60282010  0.37266512     0.30800
H1331       H  0.72428304  0.62582358  0.46894123     0.38700
H1332       H  0.70099311  0.62222341  0.51100301     0.34200
C1333       C  0.93065456  0.98679680  0.48242262    -0.19600
C1334       C  0.89574923  0.98880384  0.47922781     0.36700
C1335       C  0.87695070  0.96024662  0.47294318    -0.25500
C1336       C  0.89240958  0.92984278  0.46936947     0.03100
C1337       C  0.92695773  0.92750518  0.47540431     0.27900
C1338       C  0.94576639  0.95604562  0.48236830    -0.24700
N1339       N  0.87978815  0.02005234  0.48025900    -0.82100
H1340       H  0.85033226  0.96187121  0.46871595     0.13700
C1341       C  0.87234799  0.90111316  0.45669241     0.03100
N1342       N  0.94289364  0.89632102  0.47264584    -0.80600
H1343       H  0.97257949  0.95454286  0.48423452     0.18500
C1344       C  0.87836476  0.88688590  0.41858576    -0.25500
C1345       C  0.85874396  0.86068253  0.40444780     0.36600
C1346       C  0.83284822  0.84811431  0.42936916    -0.19500
C1347       C  0.82709104  0.86254957  0.46761457    -0.24700
C1348       C  0.84647112  0.88886278  0.48142598     0.27900
H1349       H  0.89801372  0.89682534  0.39943418     0.13700
N1350       N  0.86466561  0.84738658  0.36469141    -0.82000
H1351       H  0.80747128  0.85311836  0.48716853     0.18500
N1352       N  0.84005444  0.90319079  0.52052233    -0.80600
H1353       H  0.88485411  0.85914238  0.35064385     0.34200
H1354       H  0.84386468  0.85249670  0.34695954     0.38700
H1355       H  0.82000263  0.89148522  0.53492389     0.34100
H1356       H  0.86086993  0.89912419  0.53863815     0.30800
H1357       H  0.96847776  0.89880064  0.47715716     0.34100
H1358       H  0.93372060  0.88180116  0.49643086     0.30800
H1359       H  0.88144309  0.53186149  0.52453160     0.38700
H1360       H  0.85412525  0.01741928  0.47657754     0.34200
C1361       C  0.52351816  0.92927395  0.33307718    -0.19600
C1362       C  0.52318121  0.89542062  0.32603359     0.36700
C1363       C  0.55259487  0.87761937  0.33079145    -0.25500
C1364       C  0.58210666  0.89303955  0.34310943     0.03100
C1365       C  0.58283242  0.92723528  0.34808289     0.27900
C1366       C  0.55341063  0.94507041  0.34297587    -0.24700
N1367       N  0.49262256  0.87918066  0.31566757    -0.82100
H1368       H  0.55219995  0.85138504  0.32667926     0.13700
C1369       C  0.61127535  0.87251068  0.35264632     0.03100
N1370       N  0.61314030  0.94346292  0.35949169    -0.80600
H1371       H  0.55333582  0.97105531  0.34905463     0.18500
C1372       C  0.62542273  0.85335163  0.32197551    -0.25500
C1373       C  0.65113989  0.83136394  0.33054716     0.36600
C1374       C  0.66231134  0.82777651  0.37106735    -0.19500
C1375       C  0.64875122  0.84784234  0.40145501    -0.24700
C1376       C  0.62334657  0.86999936  0.39259884     0.27900
H1377       H  0.61624449  0.85555646  0.29120463     0.13700
N1378       N  0.66608840  0.81297706  0.29815933    -0.82000
H1379       H  0.65720828  0.84570929  0.43254424     0.18500
N1380       N  0.60900690  0.88907254  0.42454912    -0.80600
H1381       H  0.65479090  0.81829369  0.27041040     0.34200
H1382       H  0.69083325  0.82070248  0.29544785     0.38700
H1383       H  0.59966252  0.87310471  0.44675623     0.34100
H1384       H  0.62794912  0.90303975  0.43765075     0.30800
H1385       H  0.60935877  0.96857415  0.36240044     0.34100
H1386       H  0.63020469  0.94042649  0.33573523     0.30800
H1387       H  0.97885472  0.89199209  0.29383799     0.38700
H1388       H  0.99025537  0.85877465  0.32005313     0.34200
C1389       C  0.95176031  0.52848540  0.33244648    -0.19600
C1390       C  0.96692752  0.55952705  0.33347736     0.36700
C1391       C  0.94714074  0.58748835  0.33731464    -0.25500
C1392       C  0.91244146  0.58469816  0.34084128     0.03100
C1393       C  0.89715758  0.55394837  0.33500688     0.27900
C1394       C  0.91701936  0.52606000  0.33137906    -0.24700
N1395       N  0.00238435  0.56252347  0.33434188    -0.82100
H1396       H  0.95905771  0.61110686  0.34088123     0.13700
C1397       C  0.89266904  0.61334771  0.35408708     0.03100
N1398       N  0.86154368  0.55107783  0.33465510    -0.80600
H1399       H  0.90540255  0.50212043  0.33044712     0.18500
C1400       C  0.89356133  0.64228863  0.33128849    -0.25500
C1401       C  0.87361306  0.66912957  0.34198596     0.36600
C1402       C  0.85276733  0.66712138  0.37695962    -0.19500
C1403       C  0.85342953  0.63858902  0.40070549    -0.24700
C1404       C  0.87307213  0.61197272  0.38972199     0.27900
H1405       H  0.90902157  0.64350540  0.30422666     0.13700
N1406       N  0.87394796  0.69784227  0.31675955    -0.82000
H1407       H  0.83819628  0.63656635  0.42789403     0.18500
N1408       N  0.87316325  0.58357879  0.41516698    -0.80600
H1409       H  0.89177451  0.69584558  0.29365616     0.34200
H1410       H  0.85093758  0.69902220  0.30227626     0.38700
H1411       H  0.88077981  0.59064245  0.44419034     0.34100
H1412       H  0.84880636  0.57467326  0.41750561     0.30800
H1413       H  0.85426889  0.52676237  0.33052293     0.34100
H1414       H  0.85303629  0.56404891  0.30942903     0.30800
H1415       H  0.47724356  0.55466314  0.28454561     0.38700
H1416       H  0.48697677  0.55665753  0.33438548     0.34200
C1417       C  0.78918721  0.71402232  0.02969585    -0.19600
C1418       C  0.79267832  0.68829989  0.05793604     0.36700
C1419       C  0.78732247  0.69396565  0.09947954    -0.25500
C1420       C  0.77921673  0.72514488  0.11363760     0.03100
C1421       C  0.77594163  0.75103652  0.08565284     0.27900
C1422       C  0.78083004  0.74518710  0.04391388    -0.24700
N1423       N  0.80286483  0.65663841  0.04467667    -0.82100
H1424       H  0.79028421  0.67408955  0.12092658     0.13700
C1425       C  0.77509629  0.73052134  0.15797387     0.03100
N1426       N  0.76760388  0.78311153  0.09982135    -0.80600
H1427       H  0.77777449  0.76490178  0.02237278     0.18500
C1428       C  0.79797889  0.75040377  0.17833559    -0.25500
C1429       C  0.79561800  0.75552564  0.22053914     0.36600
C1430       C  0.76912521  0.74085882  0.24295721    -0.19500
C1431       C  0.74611376  0.72105743  0.22202896    -0.24700
C1432       C  0.74891033  0.71567998  0.17993164     0.27900
H1433       H  0.81822600  0.76149000  0.16120216     0.13700
N1434       N  0.82017409  0.77546255  0.24034651    -0.82000
H1435       H  0.72582569  0.70949135  0.23853677     0.18500
N1436       N  0.72521818  0.69528293  0.15929600    -0.80600
H1437       H  0.83639408  0.78605391  0.21904971     0.34200
H1438       H  0.83467577  0.75999129  0.25813990     0.38700
H1439       H  0.70750318  0.68603872  0.17977721     0.34100
H1440       H  0.71243892  0.70996796  0.13870866     0.30800
H1441       H  0.76636803  0.79948851  0.07546791     0.34100
H1442       H  0.74377014  0.78179589  0.11258770     0.30800
H1443       H  0.78466069  0.63973537  0.05374120     0.38700
H1444       H  0.82493602  0.65080948  0.05951699     0.34200
C1445       C  0.93184712  0.89816818  0.93247847    -0.19600
C1446       C  0.91819938  0.89543281  0.97202031     0.36700
C1447       C  0.89767810  0.86854001  0.98189805    -0.25500
C1448       C  0.89124025  0.84407837  0.95324224     0.03100
C1449       C  0.90505972  0.84673640  0.91378700     0.27900
C1450       C  0.92484497  0.87405830  0.90358837    -0.24700
N1451       N  0.92515343  0.92009818  0.00185210    -0.82100
H1452       H  0.88682024  0.86647429  0.01203218     0.13700
C1453       C  0.86937648  0.81595687  0.96405200     0.03100
N1454       N  0.89910506  0.82146302  0.88441955    -0.80600
H1455       H  0.93567076  0.87608231  0.87342785     0.18500
C1456       C  0.83809037  0.81411272  0.94563736    -0.25500
C1457       C  0.81869936  0.78555022  0.94810397     0.36600
C1458       C  0.83071461  0.75841555  0.96972789    -0.19500
C1459       C  0.86067534  0.76099871  0.99089206    -0.24700
C1460       C  0.88035110  0.78943560  0.98823214     0.27900
H1461       H  0.82962368  0.83445449  0.92740971     0.13700
N1462       N  0.78775744  0.78314797  0.92664613    -0.82000
H1463       H  0.86996799  0.73998830  0.00722001     0.18500
N1464       N  0.91180308  0.78972009  0.00873533    -0.80600
H1465       H  0.78262014  0.80506449  0.91169061     0.34200
H1466       H  0.76884725  0.77961904  0.94819207     0.38700
H1467       H  0.92652149  0.77159227  0.99564853     0.34100
H1468       H  0.92457151  0.81171647  0.00458719     0.30800
H1469       H  0.91099965  0.82705079  0.85688993     0.34100
H1470       H  0.90999978  0.80009496  0.89531816     0.30800
H1471       H  0.91479427  0.94192273  0.99160420     0.38700
H1472       H  0.91338973  0.91442372  0.02943886     0.34200
C1473       C  0.60708668  0.57344860  0.92658198    -0.19600
C1474       C  0.63355697  0.57867620  0.89897140     0.36700
C1475       C  0.66237913  0.59489472  0.91183942    -0.25500
C1476       C  0.66578471  0.60595493  0.95194481     0.03100
C1477       C  0.63930271  0.60116055  0.97961745     0.27900
C1478       C  0.61014246  0.58521665  0.96658943    -0.24700
N1479       N  0.63120337  0.56804582  0.85762741    -0.82100
H1480       H  0.68210323  0.59908686  0.89008191     0.13700
C1481       C  0.69678885  0.62352052  0.96364081     0.03100
N1482       N  0.64234364  0.61199661  0.02095014    -0.80600
H1483       H  0.59011307  0.58110311  0.98820459     0.18500
C1484       C  0.69494880  0.65583775  0.97752706    -0.25500
C1485       C  0.72377950  0.67500721  0.98204668     0.36600
C1486       C  0.75509048  0.66164919  0.97278537    -0.19500
C1487       C  0.75704695  0.62859954  0.96185634    -0.24700
C1488       C  0.72825590  0.60933926  0.95744139     0.27900
H1489       H  0.67089907  0.66695282  0.98229086     0.13700
N1490       N  0.72083423  0.70873675  0.99258633    -0.82000
H1491       H  0.78108093  0.61831537  0.95452895     0.18500
N1492       N  0.73072004  0.57578951  0.94518673    -0.80600
H1493       H  0.70565135  0.72004607  0.97120988     0.34200
H1494       H  0.70899176  0.71008283  0.02090498     0.38700
H1495       H  0.75560658  0.56923693  0.94129162     0.34100
H1496       H  0.72126378  0.56142230  0.96894434     0.30800
H1497       H  0.62069065  0.60665298  0.03741497     0.34100
H1498       H  0.66142661  0.59860348  0.03435879     0.30800
H1499       H  0.65084805  0.55212487  0.85182976     0.38700
H1500       H  0.63423716  0.58843563  0.83874610     0.34200
C1501       C  0.01015813  0.99645572  0.74920953    -0.19600
C1502       C  0.97940122  0.48129300  0.72563819     0.36700
C1503       C  0.97818155  0.48513933  0.68324449    -0.25500
C1504       C  0.50089891  0.00591371  0.65904960     0.03100
C1505       C  0.47943304  0.98477589  0.68064885     0.27900
C1506       C  0.48243540  0.98206996  0.72308458    -0.24700
N1507       N  0.95455768  0.46164052  0.74551418    -0.82100
H1508       H  0.95832438  0.47348081  0.66640366     0.13700
C1509       C  0.49726847  0.01055481  0.61465550     0.05100
N1510       N  0.45465314  0.96616997  0.65932477    -0.80600
H1511       H  0.46562556  0.96590444  0.73947402     0.18500
C1512       C  0.51751125  0.48799985  0.58575220    -0.25500
C1513       C  0.51397896  0.49306679  0.54369491     0.36600
C1514       C  0.48865145  0.01715124  0.53008582    -0.19500
C1515       C  0.01409821  0.99682311  0.54787211    -0.24700
C1516       C  0.02133547  0.99123630  0.58926125     0.27900
H1517       H  0.53589245  0.47094826  0.59664241     0.13700
N1518       N  0.53450318  0.47583124  0.51546184    -0.82000
H1519       H  0.02942117  0.98617515  0.52427943     0.18500
N1520       N  0.04893051  0.97125684  0.60070231    -0.80600
H1521       H  0.53104828  0.45082792  0.52050985     0.34200
H1522       H  0.55928532  0.48152112  0.52187505     0.38700
H1523       H  0.06108242  0.96240934  0.57484301     0.34100
H1524       H  0.06601207  0.98618507  0.61581334     0.30800
H1525       H  0.44109695  0.95142044  0.67954131     0.34100
H1526       H  0.43778776  0.98258741  0.64679137     0.30800
H1527       H  0.93127106  0.47133884  0.73877359     0.38700
H1528       H  0.95561145  0.43811422  0.73335866     0.34200
C1529       C  0.00643952  0.99924354  0.06426469    -0.19600
C1530       C  0.00509977  0.52725362  0.08708848     0.36700
C1531       C  0.00548241  0.52550011  0.12983355    -0.25500
C1532       C  0.50663498  0.98917386  0.14633931     0.03100
C1533       C  0.51751689  0.96257666  0.12294858     0.27900
C1534       C  0.51839495  0.96526822  0.08031314    -0.24700
N1535       N  0.99821425  0.55777049  0.06770699    -0.82100
H1536       H  0.99957782  0.54703530  0.14743652     0.13700
C1537       C  0.50132813  0.98574248  0.19070404     0.03100
N1538       N  0.52676853  0.93265939  0.14264223    -0.80600
H1539       H  0.52635088  0.94445301  0.06262710     0.18500
C1540       C  0.96490797  0.98475089  0.20939377    -0.25500
C1541       C  0.95949063  0.97995573  0.25102052     0.36600
C1542       C  0.47971373  0.47437552  0.27346133    -0.19500
C1543       C  0.50892469  0.48942397  0.25914360    -0.24700
C1544       C  0.51423666  0.49437942  0.21718026     0.27900
H1545       H  0.94508243  0.97918932  0.18830595     0.13700
N1546       N  0.92805020  0.96761134  0.26503494    -0.82000
H1547       H  0.52729820  0.49760624  0.28082771     0.18500
N1548       N  0.54401611  0.51023786  0.20270466    -0.80600
H1549       H  0.92361278  0.94520762  0.25084871     0.34200
H1550       H  0.90965462  0.98386559  0.25581415     0.38700
H1551       H  0.55911509  0.51693306  0.22709072     0.34100
H1552       H  0.55736305  0.49319901  0.18569797     0.30800
H1553       H  0.53381929  0.91523091  0.12115634     0.34100
H1554       H  0.54775954  0.93754364  0.16022832     0.30800
H1555       H  0.97485678  0.56557031  0.07761178     0.38700
H1556       H  0.01589981  0.57484583  0.07735978     0.34200
C1557       C  0.73758895  0.72540022  0.77190255    -0.19600
C1558       C  0.72870055  0.70158263  0.74317771     0.36700
C1559       C  0.73455874  0.70722884  0.70179630    -0.25500
C1560       C  0.74934708  0.73641524  0.68817524     0.03100
C1561       C  0.75791701  0.76068259  0.71688446     0.27900
C1562       C  0.75167298  0.75498886  0.75858982    -0.24700
N1563       N  0.71280934  0.67188435  0.75602053    -0.82100
H1564       H  0.72706469  0.68879983  0.68005802     0.13700
C1565       C  0.75449798  0.74111772  0.64363991     0.03100
N1566       N  0.77317259  0.79073832  0.70364106    -0.80600
H1567       H  0.75823153  0.77332611  0.78085351     0.18500
C1568       C  0.74038408  0.76807978  0.62412231    -0.25500
C1569       C  0.74189725  0.77164235  0.58156154     0.36600
C1570       C  0.75695235  0.74697290  0.55766787    -0.19500
C1571       C  0.77209003  0.72058761  0.57761909    -0.24700
C1572       C  0.77134282  0.71760748  0.62017418     0.27900
H1573       H  0.72748408  0.78614479  0.64215963     0.13700
N1574       N  0.72786262  0.80006114  0.56279904    -0.82000
H1575       H  0.78431156  0.70183957  0.55998493     0.18500
N1576       N  0.78735587  0.69057258  0.63971384    -0.80600
H1577       H  0.71683971  0.81511980  0.58458541     0.34200
H1578       H  0.74748606  0.81357498  0.55005723     0.38700
H1579       H  0.79848423  0.67533038  0.61821974     0.34100
H1580       H  0.80652389  0.70005523  0.65755984     0.30800
H1581       H  0.77778839  0.80596403  0.72845863     0.34100
H1582       H  0.79628881  0.78506931  0.69092987     0.30800
H1583       H  0.72735448  0.65238050  0.74613325     0.38700
H1584       H  0.68977258  0.67023092  0.74164332     0.34200
C1585       C  0.76915194  0.67050924  0.82554103    -0.19600
C1586       C  0.76546842  0.63679749  0.83285888     0.36700
C1587       C  0.79355938  0.61716722  0.83748842    -0.25500
C1588       C  0.82565281  0.63061486  0.83522407     0.03100
C1589       C  0.82944286  0.66357346  0.82322172     0.27900
C1590       C  0.80114947  0.68331722  0.81841649    -0.24700
N1591       N  0.73311372  0.62276681  0.83833198    -0.82100
H1592       H  0.79017085  0.59170731  0.84565637     0.13700
C1593       C  0.85424604  0.61007011  0.84802909     0.03100
N1594       N  0.86192705  0.67721242  0.81691819    -0.80600
H1595       H  0.80438878  0.70918461  0.81253825     0.18500
C1596       C  0.85878979  0.57952219  0.82990708    -0.25500
C1597       C  0.88345631  0.55804628  0.84340580     0.36600
C1598       C  0.90455071  0.56701171  0.87607232    -0.19500
C1599       C  0.89969806  0.59763872  0.89438246    -0.24700
C1600       C  0.87471419  0.61894196  0.88094173     0.27900
H1601       H  0.84283666  0.57211423  0.80510917     0.13700
N1602       N  0.88677216  0.52714725  0.82355687    -0.82000
H1603       H  0.91523094  0.60515907  0.91949249     0.18500
N1604       N  0.86952420  0.64912787  0.90175354    -0.80600
H1605       H  0.89150754  0.53142398  0.79270151     0.34200
H1606       H  0.86411159  0.51462285  0.82612000     0.38700
H1607       H  0.86432910  0.64387066  0.93226688     0.34100
H1608       H  0.89165125  0.66263582  0.90047094     0.30800
H1609       H  0.86472110  0.69712276  0.83643717     0.34100
H1610       H  0.86327071  0.68597240  0.78707530     0.30800
H1611       H  0.73009605  0.60433523  0.81671739     0.38700
H1612       H  0.73266543  0.61187131  0.86702815     0.34200
C1613       C  0.69392616  0.76715544  0.83172644    -0.19600
C1614       C  0.66426866  0.76940021  0.80955946     0.36700
C1615       C  0.64404807  0.79707950  0.81401583    -0.25500
C1616       C  0.65294794  0.82219995  0.84089257     0.03100
C1617       C  0.68343495  0.82068196  0.86157189     0.27900
C1618       C  0.70370936  0.79323904  0.85655487    -0.24700
N1619       N  0.65364073  0.74274073  0.78465817    -0.82100
H1620       H  0.62056038  0.79817108  0.79817716     0.13700
C1621       C  0.62908442  0.84849244  0.85044744     0.03100
N1622       N  0.69258325  0.84602697  0.88960285    -0.80600
H1623       H  0.72614762  0.79106836  0.87435229     0.18500
C1624       C  0.60720323  0.84435804  0.88341305    -0.25500
C1625       C  0.58620309  0.86973717  0.89623366     0.36600
C1626       C  0.58700788  0.90004706  0.87525327    -0.19500
C1627       C  0.60865618  0.90358736  0.84157057    -0.24700
C1628       C  0.62967621  0.87821656  0.82908205     0.27900
H1629       H  0.60710066  0.82136698  0.89978786     0.13700
N1630       N  0.56442039  0.86469051  0.93053463    -0.82000
H1631       H  0.60939767  0.92635970  0.82479608     0.18500
N1632       N  0.65149414  0.88244630  0.79465165    -0.80600
H1633       H  0.57308962  0.87942457  0.95415889     0.34200
H1634       H  0.56581301  0.84062458  0.94100944     0.38700
H1635       H  0.64854717  0.90559879  0.78180390     0.34100
H1636       H  0.67593914  0.88145334  0.80507053     0.30800
H1637       H  0.71528817  0.84072727  0.90332575     0.34100
H1638       H  0.69628969  0.86749164  0.87292978     0.30800
H1639       H  0.63046839  0.73467249  0.79536243     0.38700
H1640       H  0.65058884  0.75152823  0.75506453     0.34200
loop_ 
_geom_bond_atom_site_label_1 
_geom_bond_atom_site_label_2 
_geom_bond_distance 
_geom_bond_site_symmetry_2 
_ccdc_geom_bond_type 
N1            C5   1.359       .  A
N1            C2   1.361       .  A
N1          C327   1.443       .  S
C2            C3   1.378       .  A
C2          C383   1.483       .  S
C3            C4   1.368       .  A
C3            H6   1.076       .  S
C4            C5   1.379       .  A
C4            H7   1.082       .  S
C5          C355   1.474       .  S
Zn8          O12   1.938       .  S
Zn8          O13   2.039       .  S
Zn8          O17   2.033       .  S
Zn8         O434   2.007       .  S
Zn9          O12   1.933       .  S
Zn9          O16   2.007       .  S
Zn9          O20   2.012       .  S
Zn9         O834   2.033       .  S
Zn10        O832   1.939       .  S
Zn10         O15   2.017       .  S
Zn10         O18   2.010       .  S
Zn10        O431   2.031       .  S
Zn11        O422   1.942   1_545  S
Zn11         O22   2.034       .  S
Zn11         O23   2.051       .  S
Zn11        O839   2.016       .  S
O12        Zn830   1.935       .  S
O12        Zn421   1.950       .  S
O13          C25   1.277       .  A
O14        Zn829   2.046       .  S
O14          C26   1.277       .  A
O15         C847   1.276       .  A
O16          C25   1.273       .  A
O17          C27   1.278       .  A
O18          C26   1.273       .  A
O19        Zn831   2.008   1_455  S
O19          C28   1.273       .  A
O20          C29   1.276   1_556  A
O21        Zn420   2.046       .  S
O21          C28   1.277       .  A
O22         C439   1.278   1_546  A
O23          C30   1.279       .  A
O24        Zn418   1.998   1_545  S
O24          C30   1.272       .  A
C25         C215   1.485       .  S
C26         C396   1.494       .  S
C27         C271   1.494       .  S
C27         O835   1.275       .  A
C28         C243   1.490       .  S
C29         C299   1.497       .  S
C29         O432   1.278   1_554  A
C30         C368   1.492       .  S
N31          C35   1.356       .  A
N31          C32   1.358       .  A
N31         C187   1.439   1_556  S
C32          C33   1.380       .  A
C32         C256   1.475       .  S
C33          C34   1.371       .  A
C33          H36   1.082       .  S
C34          C35   1.382       .  A
C34          H37   1.079       .  S
C35         C228   1.484       .  S
N38         C452   1.360       .  A
N38         C859   1.358       .  A
N38         C312   1.442       .  S
C39         N858   1.356       .  A
C39          C40   1.382       .  A
C39         C159   1.481   1_565  S
C40        C1271   1.372       .  A
C40          H43   1.081       .  S
C41          C42   1.382   1_655  A
C41        C1270   1.366       .  A
C41          H44   1.082       .  S
C42         N448   1.360   1_455  A
C42         C131   1.480       .  S
Zn45         O49   1.926       .  S
Zn45         O50   2.021       .  S
Zn45         O54   2.026       .  S
Zn45         O61   1.986       .  S
Zn46         O49   1.934       .  S
Zn46         O51   2.024       .  S
Zn46         O53   2.044       .  S
Zn46         O57   2.033       .  S
Zn47         O49   1.935       .  S
Zn47         O52   2.012       .  S
Zn47         O55   2.038       .  S
Zn47         O58   2.021       .  S
Zn48         O49   1.947       .  S
Zn48         O56   2.048       .  S
Zn48         O59   2.031       .  S
Zn48         O60   2.060       .  S
O50          C62   1.276       .  A
O51          C63   1.275       .  A
O52          C64   1.273       .  A
O53          C62   1.279       .  A
O54          C64   1.275       .  A
O55          C63   1.278       .  A
O56          C65   1.279       .  A
O57          C66   1.279       .  A
O58          C65   1.278       .  A
O59          C66   1.276       .  A
O60          C67   1.279       .  A
O61          C67   1.271       .  A
C62         C340   1.499       .  S
C63          C75   1.495       .  S
C64         C144   1.490       .  S
C65         C200   1.499       .  S
C66         C172   1.493       .  S
C67         C116   1.493       .  S
N68          C72   1.356       .  A
N68        C1299   1.357       .  A
N68         C694   1.438       .  S
C69        N1298   1.354       .  A
C69          C70   1.381       .  A
C69         C103   1.479       .  S
C70        C1301   1.371       .  A
C70          H73   1.079       .  S
C71          C72   1.378       .  A
C71        C1300   1.370       .  A
C71          H74   1.081       .  S
C72          C88   1.476   1_655  S
C75          C76   1.421       .  A
C75          C80   1.408       .  A
C76          C77   1.409       .  A
C76          N81   1.438       .  S
C77          C78   1.398       .  A
C77          H82   1.084       .  S
C78          C79   1.409       .  A
C78          C83   1.484       .  S
C79          C80   1.408       .  A
C79          N84   1.438       .  S
C80          H85   1.083       .  S
N81         H101   1.045       .  S
N81         H102   1.046       .  S
C83          C86   1.403       .  A
C83          C90   1.416       .  A
N84          H99   1.046       .  S
N84         H100   1.045       .  S
C86          C87   1.402       .  A
C86          H91   1.084       .  S
C87          C88   1.414       .  A
C87          N92   1.438       .  S
C88          C89   1.403       .  A
C89          C90   1.404       .  A
C89          H93   1.084       .  S
C90          N94   1.438       .  S
N92          H95   1.045       .  S
N92          H96   1.044   1_455  S
N94          H97   1.046       .  S
N94          H98   1.043       .  S
C103        C104   1.409       .  A
C103        C108   1.403       .  A
C104        C105   1.404       .  A
C104        N109   1.436       .  S
C105        C106   1.403       .  A
C105        H110   1.084       .  S
C106        C107   1.409       .  A
C106        C111   1.483       .  S
C107        C108   1.406       .  A
C107        N112   1.437       .  S
C108        H113   1.081       .  S
N109        H130   1.045       .  S
N109        H539   1.046       .  S
C111        C114   1.405       .  A
C111        C118   1.405       .  A
N112        H127   1.045       .  S
N112        H128   1.046       .  S
C114        C115   1.410       .  A
C114        H119   1.084       .  S
C115        C116   1.415       .  A
C115        N120   1.437       .  S
C116        C117   1.412       .  A
C117        C118   1.403       .  A
C117        H121   1.083       .  S
C118        N122   1.438       .  S
N120        H123   1.046       .  S
N120        H124   1.046       .  S
N122        H125   1.045       .  S
N122        H126   1.046       .  S
H129        N519   1.046       .  S
C131        C132   1.412       .  A
C131        C136   1.404       .  A
C132        C133   1.402       .  A
C132        N137   1.438   1_455  S
C133        C134   1.399       .  A
C133        H138   1.084       .  S
C134        C135   1.410       .  A
C134        C139   1.480       .  S
C135        C136   1.410       .  A
C135        N140   1.437       .  S
C136        H141   1.083       .  S
N137        H977   1.045       .  S
N137        H978   1.045       .  S
C139        C142   1.399       .  A
C139        C146   1.409       .  A
N140        H155   1.046       .  S
N140        H156   1.046       .  S
C142        C143   1.406       .  A
C142        H147   1.084       .  S
C143        C144   1.420       .  A
C143        N148   1.438       .  S
C144        C145   1.407       .  A
C145        C146   1.407       .  A
C145        H149   1.083       .  S
C146        N150   1.438       .  S
N148        H151   1.046       .  S
N148        H152   1.046       .  S
N150        H153   1.046       .  S
N150        H154   1.045       .  S
H157        N957   1.046       .  S
H158        N957   1.046       .  S
C159        C160   1.410       .  A
C159        C164   1.402       .  A
C160        C161   1.407       .  A
C160        N165   1.432       .  S
C161        C162   1.402       .  A
C161        H166   1.084       .  S
C162        C163   1.410       .  A
C162        C167   1.484       .  S
C163        C164   1.405       .  A
C163        N168   1.437       .  S
C164        H169   1.084   1_545  S
N165       H1005   1.045       .  S
N165       H1006   1.045       .  S
C167        C170   1.400       .  A
C167        C174   1.411       .  A
N168        H183   1.046       .  S
N168        H184   1.046       .  S
C170        C171   1.410       .  A
C170        H175   1.084       .  S
C171        C172   1.420       .  A
C171        N176   1.438       .  S
C172        C173   1.406       .  A
C173        C174   1.405       .  A
C173        H177   1.083       .  S
C174        N178   1.439       .  S
N176        H179   1.046       .  S
N176        H180   1.046       .  S
N178        H181   1.046       .  S
N178        H182   1.044       .  S
H185        N985   1.045       .  S
H186        N985   1.045   1_455  S
C187        C188   1.406       .  A
C187        C192   1.402       .  A
C188        C189   1.407       .  A
C188        N193   1.430       .  S
C189        C190   1.404       .  A
C189        H194   1.084       .  S
C190        C191   1.410       .  A
C190        C195   1.484       .  S
C191        C192   1.406       .  A
C191        N196   1.438       .  S
C192        H197   1.083       .  S
N193        H213   1.045       .  S
N193        H214   1.045       .  S
C195        C198   1.401       .  A
C195        C202   1.406       .  A
N196        H211   1.046       .  S
N196        H212   1.046       .  S
C198        C199   1.410       .  A
C198        H203   1.084       .  S
C199        C200   1.420       .  A
C199        N204   1.437       .  S
C200        C201   1.411       .  A
C201        C202   1.407       .  A
C201        H205   1.083       .  S
C202        N206   1.438       .  S
N204        H207   1.046       .  S
N204        H208   1.046       .  S
N206        H209   1.045       .  S
N206        H210   1.046       .  S
C215        C216   1.418       .  A
C215        C220   1.404       .  A
C216        C217   1.407       .  A
C216        N221   1.439   1_556  S
C217        C218   1.399       .  A
C217        H222   1.084   1_556  S
C218        C219   1.410       .  A
C218        C223   1.482       .  S
C219        C220   1.407       .  A
C219        N224   1.437       .  S
C220        H225   1.084       .  S
N221        H241   1.046       .  S
N221        H242   1.046       .  S
C223        C226   1.401       .  A
C223        C230   1.417       .  A
N224        H239   1.046       .  S
N224        H240   1.046       .  S
C226        C227   1.404       .  A
C226        H231   1.084       .  S
C227        C228   1.410       .  A
C227        N232   1.438       .  S
C228        C229   1.405       .  A
C229        C230   1.405       .  A
C229        H233   1.082       .  S
C230        N234   1.438       .  S
N232        H235   1.046       .  S
N232        H236   1.046       .  S
N234        H237   1.045       .  S
N234        H238   1.043       .  S
C243        C244   1.414       .  A
C243        C248   1.408       .  A
C244        C245   1.409       .  A
C244        N249   1.437       .  S
C245        C246   1.407       .  A
C245        H250   1.083       .  S
C246        C247   1.410       .  A
C246        C251   1.492       .  S
C247        C248   1.406       .  A
C247        N252   1.438   1_556  S
C248        H253   1.084       .  S
N249        H269   1.045       .  S
N249        H270   1.046       .  S
C251        C254   1.407       .  A
C251        C258   1.412       .  A
N252        H267   1.044       .  S
N252        H268   1.047       .  S
C254        C255   1.408       .  A
C254        H259   1.083       .  S
C255        C256   1.407       .  A
C255        N260   1.437       .  S
C256        C257   1.400       .  A
C257        C258   1.405       .  A
C257        H261   1.083       .  S
C258        N262   1.437       .  S
N260        H263   1.046   1_556  S
N260        H264   1.046   1_556  S
N262        H265   1.045       .  S
N262        H266   1.045       .  S
C271        C682   1.420       .  A
C271       C1096   1.409       .  A
C272        C273   1.409       .  A
C272        C681   1.420       .  A
C272        N277   1.438       .  S
C273       C1504   1.399       .  A
C273        H278   1.084       .  S
C274        C275   1.406       .  A
C274       C1503   1.400   1_455  A
C274        C279   1.478   1_455  S
C275        C276   1.406       .  A
C275        N280   1.438       .  S
C276       C1091   1.410       .  A
C276        H281   1.083       .  S
N277        H297   1.045       .  S
N277        H298   1.046       .  S
C279        C692   1.400       .  A
C279       C1106   1.411   1_655  A
N280        H295   1.046       .  S
N280        H296   1.045       .  S
C282        C283   1.398       .  A
C282        C689   1.399   1_655  A
C282        H287   1.084       .  S
C283        C694   1.407       .  A
C283        N288   1.431       .  S
C284        N478   1.438       .  S
C284        C693   1.405       .  A
C284       C1105   1.403       .  A
C285        C286   1.403       .  A
C285       C1104   1.401       .  A
C285        H289   1.083       .  S
C286       C1099   1.410       .  A
C286        N290   1.438       .  S
N288        H291   1.046       .  S
N288        H292   1.045       .  S
N290        H293   1.046       .  S
N290        H294   1.044       .  S
C299        C710   1.419       .  A
C299       C1124   1.410       .  A
C300        C301   1.405       .  A
C300        C709   1.417   1_545  A
C300        N305   1.432       .  S
C301       C1532   1.399   1_545  A
C301        H306   1.084       .  S
C302        C303   1.410       .  A
C302       C1531   1.403       .  A
C302        C307   1.488       .  S
C303        C304   1.408       .  A
C303        N308   1.438       .  S
C304       C1119   1.409       .  A
C304        H309   1.083       .  S
N305        H325   1.046       .  S
N305        H326   1.046       .  S
C307       C1130   1.402   1_455  A
C307        C724   1.414       .  A
N308        H323   1.046       .  S
N308        H324   1.046       .  S
C310        C311   1.402       .  A
C310       C1127   1.402       .  A
C310        H315   1.084       .  S
C311       C1542   1.408       .  A
C311        N316   1.432       .  S
C312        C313   1.403   1_655  A
C312       C1541   1.409       .  A
C313        C314   1.411   1_565  A
C313        H317   1.081   1_565  S
C314        C717   1.412   1_445  A
C314        N318   1.437       .  S
N316        H319   1.046       .  S
N316        H320   1.046       .  S
N318        H321   1.046       .  S
N318        H322   1.045   1_545  S
C327        C328   1.407       .  A
C327        C332   1.400       .  A
C328        C329   1.408       .  A
C328        N333   1.431       .  S
C329        C330   1.407       .  A
C329        H334   1.083       .  S
C330        C331   1.416       .  A
C330        C335   1.497       .  S
C331        C332   1.406       .  A
C331        N336   1.438       .  S
C332        H337   1.083       .  S
N333        H353   1.046       .  S
N333        H354   1.045       .  S
C335        C338   1.403       .  A
C335        C342   1.413       .  A
N336        H351   1.045       .  S
N336        H352   1.046       .  S
C338        C339   1.405       .  A
C338        H343   1.083       .  S
C339        C340   1.419       .  A
C339        N344   1.438       .  S
C340        C341   1.410       .  A
C341        C342   1.412       .  A
C341        H345   1.083       .  S
C342        N346   1.438       .  S
N344        H347   1.046       .  S
N344        H348   1.046       .  S
N346        H349   1.046       .  S
N346        H350   1.046       .  S
C355        C356   1.407       .  A
C355        C360   1.402       .  A
C356        C357   1.400       .  A
C356        N361   1.433       .  S
C357        C358   1.402       .  A
C357        H362   1.084       .  S
C358        C359   1.411       .  A
C358        C363   1.485       .  S
C359        C360   1.407       .  A
C359        N364   1.432       .  S
C360        H365   1.084       .  S
N361        H381   1.045       .  S
N361        H382   1.046       .  S
C363        C366   1.400       .  A
C363        C370   1.408       .  A
N364        H379   1.046       .  S
N364        H380   1.045       .  S
C366        C367   1.407       .  A
C366        H371   1.084       .  S
C367        C368   1.421       .  A
C367        N372   1.438       .  S
C368        C369   1.406       .  A
C369        C370   1.405       .  A
C369        H373   1.083       .  S
C370        N374   1.432       .  S
N372        H375   1.046       .  S
N372        H376   1.045       .  S
N374        H377   1.045       .  S
N374        H378   1.046       .  S
C383        C384   1.409       .  A
C383        C388   1.406       .  A
C384        C385   1.407       .  A
C384        N389   1.431       .  S
C385        C386   1.403       .  A
C385        H390   1.084       .  S
C386        C387   1.409       .  A
C386        C391   1.484       .  S
C387        C388   1.406       .  A
C387        N392   1.438       .  S
C388        H393   1.083       .  S
N389        H409   1.046       .  S
N389        H410   1.045       .  S
C391        C394   1.402       .  A
C391        C398   1.405       .  A
N392        H407   1.046       .  S
N392        H408   1.045       .  S
C394        C395   1.408       .  A
C394        H399   1.082       .  S
C395        C396   1.416       .  A
C395        N400   1.438       .  S
C396        C397   1.412       .  A
C397        C398   1.408       .  A
C397        H401   1.083       .  S
C398        N402   1.438       .  S
N400        H403   1.046       .  S
N400        H404   1.045       .  S
N402        H405   1.046       .  S
N402        H406   1.045       .  S
N411        C415   1.359       .  A
N411        C412   1.359       .  A
N411        C737   1.443       .  S
C412        C413   1.380       .  A
C412        C793   1.482       .  S
C413        C414   1.367       .  A
C413        H416   1.078       .  S
C414        C415   1.379       .  A
C414        H417   1.082       .  S
C415        C765   1.472       .  S
Zn418       O422   1.936       .  S
Zn418       O423   2.030       .  S
Zn418       O427   2.029       .  S
Zn419       O422   1.934       .  S
Zn419      O1244   2.034       .  S
Zn419       O426   2.003       .  S
Zn419       O430   2.023       .  S
Zn420      O1242   1.941   1_545  S
Zn420       O425   2.029       .  S
Zn420       O428   2.008   1_545  S
Zn421      O1249   2.021       .  S
Zn421       O432   2.045       .  S
Zn421       O433   2.051       .  S
O422      Zn1240   1.933       .  S
O423        C435   1.276       .  A
O424      Zn1239   2.039       .  S
O424        C436   1.277       .  A
O425       C1257   1.277   1_545  A
O426        C435   1.272       .  A
O427        C437   1.278       .  A
O428        C436   1.274       .  A
O429      Zn1241   2.021   1_455  S
O429        C438   1.275       .  A
O430        C439   1.277   1_556  A
O431        C438   1.275       .  A
O433        C440   1.280       .  A
O434        C440   1.272       .  A
C435        C625   1.484       .  S
C436        C806   1.489       .  S
C437        C681   1.495   1_565  S
C437       O1245   1.276   1_565  A
C438        C653   1.489       .  S
C439        C709   1.496       .  S
C440        C778   1.497       .  S
N441        C445   1.356       .  A
N441        C442   1.357       .  A
N441        C597   1.440   1_556  S
C442        C443   1.379       .  A
C442        C666   1.473       .  S
C443        C444   1.369       .  A
C443        H446   1.082       .  S
C444        C445   1.380       .  A
C444        H447   1.076       .  S
C445        C638   1.480       .  S
N448       C1269   1.357       .  A
N448        C722   1.439   1_655  S
C449       N1268   1.361       .  A
C449        C450   1.382       .  A
C449        C569   1.493       .  S
C450        C861   1.372       .  A
C450        H453   1.078       .  S
C451        C860   1.371       .  A
C451        C452   1.381       .  A
C451        H454   1.082       .  S
C452        C541   1.481   1_655  S
Zn455       O459   1.938       .  S
Zn455       O460   2.033       .  S
Zn455       O464   2.061       .  S
Zn455       O471   2.004       .  S
Zn456       O459   1.932       .  S
Zn456       O461   2.005       .  S
Zn456       O463   2.033       .  S
Zn456       O467   2.034       .  S
Zn457       O459   1.930       .  S
Zn457       O462   2.008       .  S
Zn457       O465   2.013       .  S
Zn457       O468   2.009       .  S
Zn458       O459   1.943       .  S
Zn458       O466   2.043       .  S
Zn458       O469   2.055       .  S
Zn458       O470   2.068       .  S
O460        C472   1.278       .  A
O461        C473   1.272       .  A
O462        C474   1.272       .  A
O463        C472   1.279       .  A
O464        C474   1.279       .  A
O465        C473   1.275       .  A
O466        C475   1.279       .  A
O467        C476   1.278       .  A
O468        C475   1.275       .  A
O469        C476   1.278       .  A
O470        C477   1.282       .  A
O471        C477   1.275       .  A
C472        C750   1.500       .  S
C473        C485   1.488       .  S
C474        C554   1.496       .  S
C475        C610   1.488       .  S
C476        C582   1.502       .  S
C477        C526   1.496       .  S
N478        C482   1.355       .  A
N478        C889   1.353       .  A
C479        N888   1.359       .  A
C479        C480   1.381       .  A
C479        C513   1.484   1_545  S
C480        C891   1.369       .  A
C480        H483   1.080       .  S
C481        C890   1.369       .  A
C481        C482   1.380       .  A
C481        H484   1.080       .  S
C482        C498   1.475   1_655  S
C485        C486   1.420       .  A
C485        C490   1.407       .  A
C486        C487   1.404       .  A
C486        N491   1.438       .  S
C487        C488   1.398       .  A
C487        H492   1.084       .  S
C488        C489   1.408       .  A
C488        C493   1.478       .  S
C489        C490   1.403       .  A
C489        N494   1.438       .  S
C490        H495   1.083       .  S
N491        H511   1.046       .  S
N491        H512   1.046       .  S
C493        C496   1.402       .  A
C493        C500   1.417       .  A
N494        H509   1.046       .  S
N494        H510   1.046       .  S
C496        C497   1.398       .  A
C496        H501   1.084       .  S
C497        C498   1.415       .  A
C497        N502   1.439   1_455  S
C498        C499   1.401       .  A
C499        C500   1.400       .  A
C499        H503   1.084       .  S
C500        N504   1.439       .  S
N502        H505   1.046       .  S
N502        H506   1.043       .  S
N504        H507   1.046       .  S
N504        H508   1.042       .  S
C513        C514   1.410       .  A
C513        C518   1.403       .  A
C514        C515   1.406       .  A
C514        N519   1.438   1_565  S
C515        C516   1.405       .  A
C515        H520   1.083       .  S
C516        C517   1.411       .  A
C516        C521   1.493       .  S
C517        C518   1.410       .  A
C517        N522   1.437       .  S
C518        H523   1.080       .  S
N519        H540   1.045       .  S
C521        C524   1.407       .  A
C521        C528   1.408       .  A
N522        H537   1.046       .  S
N522        H538   1.045       .  S
C524        C525   1.412       .  A
C524        H529   1.084       .  S
C525        C526   1.415       .  A
C525        N530   1.437       .  S
C526        C527   1.410       .  A
C527        C528   1.405       .  A
C527        H531   1.083       .  S
C528        N532   1.438       .  S
N530        H533   1.046       .  S
N530        H534   1.046       .  S
N532        H535   1.046       .  S
N532        H536   1.046       .  S
C541        C542   1.410       .  A
C541        C546   1.403       .  A
C542        C543   1.407       .  A
C542        N547   1.437   1_455  S
C543        C544   1.404       .  A
C543        H548   1.084       .  S
C544        C545   1.412       .  A
C544        C549   1.492       .  S
C545        C546   1.409       .  A
C545        N550   1.437       .  S
C546        H551   1.083       .  S
N547       H1387   1.046       .  S
N547       H1388   1.046       .  S
C549        C552   1.400       .  A
C549        C556   1.413       .  A
N550        H565   1.046       .  S
N550        H566   1.046       .  S
C552        C553   1.408       .  A
C552        H557   1.084       .  S
C553        C554   1.421       .  A
C553        N558   1.439       .  S
C554        C555   1.406       .  A
C555        C556   1.411       .  A
C555        H559   1.083       .  S
C556        N560   1.438       .  S
N558        H561   1.046       .  S
N558        H562   1.046       .  S
N560        H563   1.046       .  S
N560        H564   1.045       .  S
H567       N1367   1.046       .  S
H568       N1367   1.046       .  S
C569        C570   1.411       .  A
C569        C574   1.406       .  A
C570        C571   1.409       .  A
C570        N575   1.430       .  S
C571        C572   1.405       .  A
C571        H576   1.083       .  S
C572        C573   1.414       .  A
C572        C577   1.500       .  S
C573        C574   1.409       .  A
C573        N578   1.438       .  S
C574        H579   1.084       .  S
N575       H1415   1.045       .  S
N575       H1416   1.045       .  S
C577        C580   1.405       .  A
C577        C584   1.413       .  A
N578        H593   1.046       .  S
N578        H594   1.045       .  S
C580        C581   1.414       .  A
C580        H585   1.084       .  S
C581        C582   1.420       .  A
C581        N586   1.438       .  S
C582        C583   1.407       .  A
C583        C584   1.409       .  A
C583        H587   1.083       .  S
C584        N588   1.437       .  S
N586        H589   1.046       .  S
N586        H590   1.046       .  S
N588        H591   1.045       .  S
N588        H592   1.045       .  S
H595       N1395   1.045       .  S
H596       N1395   1.046       .  S
C597        C598   1.405       .  A
C597        C602   1.402       .  A
C598        C599   1.407       .  A
C598        N603   1.430       .  S
C599        C600   1.406       .  A
C599        H604   1.084       .  S
C600        C601   1.412       .  A
C600        C605   1.488       .  S
C601        C602   1.404       .  A
C601        N606   1.438       .  S
C602        H607   1.083       .  S
N603        H623   1.046       .  S
N603        H624   1.046       .  S
C605        C608   1.403       .  A
C605        C612   1.409       .  A
N606        H621   1.046       .  S
N606        H622   1.045       .  S
C608        C609   1.407       .  A
C608        H613   1.084       .  S
C609        C610   1.415       .  A
C609        N614   1.438       .  S
C610        C611   1.408       .  A
C611        C612   1.407       .  A
C611        H615   1.084       .  S
C612        N616   1.438       .  S
N614        H617   1.046       .  S
N614        H618   1.045       .  S
N616        H619   1.046       .  S
N616        H620   1.046       .  S
C625        C626   1.418       .  A
C625        C630   1.404       .  A
C626        C627   1.405       .  A
C626        N631   1.439   1_556  S
C627        C628   1.398       .  A
C627        H632   1.084   1_556  S
C628        C629   1.409       .  A
C628        C633   1.479       .  S
C629        C630   1.406       .  A
C629        N634   1.438       .  S
C630        H635   1.084       .  S
N631        H651   1.046       .  S
N631        H652   1.046       .  S
C633        C636   1.402       .  A
C633        C640   1.417       .  A
N634        H649   1.045       .  S
N634        H650   1.046       .  S
C636        C637   1.404       .  A
C636        H641   1.084       .  S
C637        C638   1.410       .  A
C637        N642   1.438       .  S
C638        C639   1.403       .  A
C639        C640   1.402       .  A
C639        H643   1.083       .  S
C640        N644   1.439       .  S
N642        H645   1.046       .  S
N642        H646   1.045   1_556  S
N644        H647   1.045       .  S
N644        H648   1.043       .  S
C653        C654   1.415       .  A
C653        C658   1.408       .  A
C654        C655   1.409       .  A
C654        N659   1.438       .  S
C655        C656   1.405       .  A
C655        H660   1.084       .  S
C656        C657   1.409       .  A
C656        C661   1.489       .  S
C657        C658   1.405       .  A
C657        N662   1.438   1_556  S
C658        H663   1.084       .  S
N659        H679   1.045       .  S
N659        H680   1.046       .  S
C661        C664   1.405       .  A
C661        C668   1.412       .  A
N662        H677   1.044       .  S
N662        H678   1.047       .  S
C664        C665   1.405       .  A
C664        H669   1.083       .  S
C665        C666   1.406       .  A
C665        N670   1.437       .  S
C666        C667   1.402       .  A
C667        C668   1.407       .  A
C667        H671   1.084       .  S
C668        N672   1.437       .  S
N670        H673   1.046   1_556  S
N670        H674   1.046   1_556  S
N672        H675   1.046       .  S
N672        H676   1.046       .  S
C681       C1506   1.409   1_545  A
C682        C683   1.407       .  A
C682        N687   1.438       .  S
C683       C1094   1.399       .  A
C683        H688   1.084       .  S
C684       C1093   1.400   1_445  A
C684        C685   1.408       .  A
C684        C689   1.481       .  S
C685        C686   1.405       .  A
C685        N690   1.438       .  S
C686       C1501   1.406   1_545  A
C686        H691   1.084       .  S
N687        H707   1.046       .  S
N687        H708   1.046       .  S
C689       C1516   1.412   1_545  A
N690        H705   1.045       .  S
N690        H706   1.045       .  S
C692        C693   1.399       .  A
C692        H697   1.084       .  S
C693        N698   1.431       .  S
C694       C1515   1.403   1_645  A
C695       C1514   1.403       .  A
C695        C696   1.404       .  A
C695        H699   1.083       .  S
C696       C1509   1.409       .  A
C696        N700   1.438       .  S
N698        H701   1.046       .  S
N698        H702   1.045       .  S
N700        H703   1.046       .  S
N700        H704   1.045       .  S
C709       C1534   1.410       .  A
C710        C711   1.411       .  A
C710        N715   1.437       .  S
C711       C1122   1.402       .  A
C711        H716   1.084       .  S
C712       C1121   1.403   1_565  A
C712        C713   1.410   1_455  A
C712        C717   1.485   1_455  S
C713        C714   1.403   1_655  A
C713        N718   1.438       .  S
C714       C1529   1.403       .  A
C714        H719   1.084   1_455  S
N715        H735   1.045       .  S
N715        H736   1.046       .  S
C717       C1540   1.401       .  A
N718        H733   1.045       .  S
N718        H734   1.046   1_655  S
C720       C1537   1.399       .  A
C720        C721   1.399       .  A
C720        H725   1.084       .  S
C721       C1132   1.408       .  A
C721        N726   1.432       .  S
C722       C1131   1.405   1_455  A
C722        C723   1.402       .  A
C723        C724   1.413       .  A
C723        H727   1.083       .  S
C724        N728   1.437       .  S
N726        H729   1.046       .  S
N726        H730   1.046       .  S
N728        H731   1.046       .  S
N728        H732   1.046       .  S
C737        C738   1.407       .  A
C737        C742   1.402       .  A
C738        C739   1.407       .  A
C738        N743   1.430       .  S
C739        C740   1.406       .  A
C739        H744   1.084       .  S
C740        C741   1.413       .  A
C740        C745   1.492       .  S
C741        C742   1.406       .  A
C741        N746   1.438       .  S
C742        H747   1.083       .  S
N743        H763   1.046       .  S
N743        H764   1.045       .  S
C745        C748   1.402       .  A
C745        C752   1.410       .  A
N746        H761   1.046       .  S
N746        H762   1.046       .  S
C748        C749   1.407       .  A
C748        H753   1.084       .  S
C749        C750   1.420       .  A
C749        N754   1.438       .  S
C750        C751   1.411       .  A
C751        C752   1.410       .  A
C751        H755   1.083       .  S
C752        N756   1.438       .  S
N754        H757   1.046       .  S
N754        H758   1.046       .  S
N756        H759   1.046       .  S
N756        H760   1.046       .  S
C765        C766   1.408       .  A
C765        C770   1.402       .  A
C766        C767   1.400       .  A
C766        N771   1.433       .  S
C767        C768   1.400       .  A
C767        H772   1.084       .  S
C768        C769   1.408       .  A
C768        C773   1.479       .  S
C769        C770   1.407       .  A
C769        N774   1.431       .  S
C770        H775   1.084       .  S
N771        H791   1.046       .  S
N771        H792   1.045       .  S
C773        C776   1.396       .  A
C773        C780   1.408       .  A
N774        H789   1.046       .  S
N774        H790   1.045       .  S
C776        C777   1.407       .  A
C776        H781   1.084       .  S
C777        C778   1.424       .  A
C777        N782   1.438       .  S
C778        C779   1.408       .  A
C779        C780   1.407       .  A
C779        H783   1.083       .  S
C780        N784   1.438       .  S
N782        H785   1.046       .  S
N782        H786   1.045       .  S
N784        H787   1.046       .  S
N784        H788   1.045       .  S
C793        C794   1.410       .  A
C793        C798   1.404       .  A
C794        C795   1.407       .  A
C794        N799   1.431       .  S
C795        C796   1.402       .  A
C795        H800   1.084       .  S
C796        C797   1.408       .  A
C796        C801   1.479       .  S
C797        C798   1.403       .  A
C797        N802   1.438       .  S
C798        H803   1.083       .  S
N799        H819   1.046       .  S
N799        H820   1.046       .  S
C801        C804   1.403       .  A
C801        C808   1.404       .  A
N802        H817   1.045       .  S
N802        H818   1.045       .  S
C804        C805   1.408       .  A
C804        H809   1.083       .  S
C805        C806   1.415       .  A
C805        N810   1.438       .  S
C806        C807   1.410       .  A
C807        C808   1.404       .  A
C807        H811   1.084       .  S
C808        N812   1.438       .  S
N810        H813   1.046       .  S
N810        H814   1.045       .  S
N812        H815   1.046       .  S
N812        H816   1.045       .  S
N821        C825   1.359       .  A
N821        C822   1.359       .  A
N821       C1147   1.441       .  S
C822        C823   1.381       .  A
C822       C1203   1.482       .  S
C823        C824   1.369       .  A
C823        H826   1.081       .  S
C824        C825   1.382       .  A
C824        H827   1.079       .  S
C825       C1175   1.487       .  S
Zn828       O832   1.940   1_655  S
Zn828       O833   2.040       .  S
Zn828       O837   2.029       .  S
Zn828      O1254   2.008       .  S
Zn829       O832   1.939       .  S
Zn829       O836   2.016   1_455  S
Zn829       O840   2.025       .  S
Zn830       O835   2.023       .  S
Zn830       O838   2.014       .  S
Zn830      O1251   2.021       .  S
Zn831      O1242   1.940   1_645  S
Zn831       O842   2.023       .  S
Zn831       O843   2.039       .  S
O832      Zn1241   1.950   1_455  S
O833        C845   1.277       .  A
O834        C846   1.276       .  A
O836        C845   1.274       .  A
O837        C847   1.276   1_655  A
O838        C846   1.274       .  A
O839        C848   1.275       .  A
O840        C849   1.278   1_556  A
O841      Zn1240   2.035   1_545  S
O841        C848   1.277       .  A
O842       C1259   1.276   1_646  A
O843        C850   1.277       .  A
O844      Zn1238   2.022   1_545  S
O844        C850   1.275       .  A
C845       C1035   1.486       .  S
C846       C1216   1.496       .  S
C847       C1091   1.494       .  S
C848       C1063   1.486       .  S
C849       C1119   1.495       .  S
C849       O1252   1.281   1_454  A
C850       C1188   1.485       .  S
N851        C855   1.360       .  A
N851        C852   1.360       .  A
N851       C1007   1.443   1_556  S
C852        C853   1.378       .  A
C852       C1076   1.484       .  S
C853        C854   1.367       .  A
C853        H856   1.075       .  S
C854        C855   1.378       .  A
C854        H857   1.081       .  S
C855       C1048   1.475       .  S
N858       C1272   1.354       .  A
N858       C1132   1.439       .  S
C859        C860   1.380       .  A
C859        C979   1.485   1_565  S
C860        H863   1.079       .  S
C861        C862   1.378       .  A
C861        H864   1.082       .  S
C862       N1268   1.358       .  A
C862        C951   1.480       .  S
Zn865       O869   1.938       .  S
Zn865       O870   2.048       .  S
Zn865       O874   2.053       .  S
Zn865       O881   2.006       .  S
Zn866       O869   1.928       .  S
Zn866       O871   2.013       .  S
Zn866       O873   2.017       .  S
Zn866       O877   2.021       .  S
Zn867       O869   1.926       .  S
Zn867       O872   2.013       .  S
Zn867       O875   2.030       .  S
Zn867       O878   2.016       .  S
Zn868       O869   1.949       .  S
Zn868       O876   2.037       .  S
Zn868       O879   2.032       .  S
Zn868       O880   2.045       .  S
O870        C882   1.279       .  A
O871        C883   1.272       .  A
O872        C884   1.274       .  A
O873        C882   1.277       .  A
O874        C884   1.279       .  A
O875        C883   1.277       .  A
O876        C885   1.278       .  A
O877        C886   1.276       .  A
O878        C885   1.277       .  A
O879        C886   1.275       .  A
O880        C887   1.279       .  A
O881        C887   1.275       .  A
C882       C1160   1.499       .  S
C883        C895   1.495       .  S
C884        C964   1.496       .  S
C885       C1020   1.492       .  S
C886        C992   1.491       .  S
C887        C936   1.489       .  S
N888        C892   1.358       .  A
N888       C1514   1.438       .  S
C889        C890   1.380       .  A
C889        C923   1.475       .  S
C890        H893   1.080       .  S
C891        C892   1.380       .  A
C891        H894   1.081       .  S
C892        C908   1.481       .  S
C895        C896   1.422       .  A
C895        C900   1.407       .  A
C896        C897   1.410       .  A
C896        N901   1.438       .  S
C897        C898   1.400       .  A
C897        H902   1.084       .  S
C898        C899   1.409       .  A
C898        C903   1.485       .  S
C899        C900   1.404       .  A
C899        N904   1.438       .  S
C900        H905   1.083       .  S
N901        H921   1.046       .  S
N901        H922   1.046       .  S
C903        C906   1.402       .  A
C903        C910   1.411       .  A
N904        H919   1.046       .  S
N904        H920   1.046       .  S
C906        C907   1.404       .  A
C906        H911   1.084       .  S
C907        C908   1.410       .  A
C907        N912   1.437       .  S
C908        C909   1.404       .  A
C909        C910   1.409       .  A
C909        H913   1.083       .  S
C910        N914   1.437       .  S
N912        H915   1.045       .  S
N912        H916   1.046       .  S
N914        H917   1.046       .  S
N914        H918   1.046       .  S
C923        C924   1.407       .  A
C923        C928   1.402       .  A
C924        C925   1.403       .  A
C924        N929   1.438       .  S
C925        C926   1.404       .  A
C925        H930   1.083       .  S
C926        C927   1.412       .  A
C926        C931   1.486       .  S
C927        C928   1.406       .  A
C927        N932   1.437       .  S
C928        H933   1.082       .  S
N929       H1359   1.046       .  S
N929        H950   1.045       .  S
C931        C934   1.405       .  A
C931        C938   1.408       .  A
N932        H947   1.046       .  S
N932        H948   1.045       .  S
C934        C935   1.407       .  A
C934        H939   1.084       .  S
C935        C936   1.414       .  A
C935        N940   1.437       .  S
C936        C937   1.409       .  A
C937        C938   1.405       .  A
C937        H941   1.083       .  S
C938        N942   1.438       .  S
N940        H943   1.046       .  S
N940        H944   1.046       .  S
N942        H945   1.045       .  S
N942        H946   1.046       .  S
H949       N1339   1.045       .  S
C951        C952   1.407       .  A
C951        C956   1.403       .  A
C952        C953   1.409       .  A
C952        N957   1.437       .  S
C953        C954   1.406       .  A
C953        H958   1.084       .  S
C954        C955   1.413       .  A
C954        C959   1.495       .  S
C955        C956   1.410       .  A
C955        N960   1.437       .  S
C956        H961   1.084       .  S
C959        C962   1.402       .  A
C959        C966   1.414       .  A
N960        H975   1.046       .  S
N960        H976   1.045       .  S
C962        C963   1.409       .  A
C962        H967   1.084       .  S
C963        C964   1.420       .  A
C963        N968   1.438       .  S
C964        C965   1.406       .  A
C965        C966   1.409       .  A
C965        H969   1.083       .  S
C966        N970   1.438       .  S
N968        H971   1.046       .  S
N968        H972   1.046       .  S
N970        H973   1.046       .  S
N970        H974   1.045       .  S
C979        C980   1.410       .  A
C979        C984   1.403       .  A
C980        C981   1.408       .  A
C980        N985   1.432       .  S
C981        C982   1.404       .  A
C981        H986   1.084       .  S
C982        C983   1.411       .  A
C982        C987   1.489       .  S
C983        C984   1.405       .  A
C983        N988   1.438       .  S
C984        H989   1.084       .  S
C987        C990   1.402       .  A
C987        C994   1.411       .  A
N988       H1003   1.046       .  S
N988       H1004   1.046       .  S
C990        C991   1.411       .  A
C990        H995   1.084       .  S
C991        C992   1.420       .  A
C991        N996   1.438       .  S
C992        C993   1.404       .  A
C993        C994   1.404       .  A
C993        H997   1.084       .  S
C994        N998   1.437       .  S
N996        H999   1.046       .  S
N996       H1000   1.046       .  S
N998       H1001   1.044       .  S
N998       H1002   1.045       .  S
C1007      C1008   1.408       .  A
C1007      C1012   1.402       .  A
C1008      C1009   1.402       .  A
C1008      N1013   1.432       .  S
C1009      C1010   1.403       .  A
C1009      H1014   1.084       .  S
C1010      C1011   1.413       .  A
C1010      C1015   1.489       .  S
C1011      C1012   1.409       .  A
C1011      N1016   1.437       .  S
C1012      H1017   1.079       .  S
N1013      H1033   1.046       .  S
N1013      H1034   1.045       .  S
C1015      C1018   1.404       .  A
C1015      C1022   1.410       .  A
N1016      H1031   1.046       .  S
N1016      H1032   1.045       .  S
C1018      C1019   1.407       .  A
C1018      H1023   1.084       .  S
C1019      C1020   1.414       .  A
C1019      N1024   1.432       .  S
C1020      C1021   1.408       .  A
C1021      C1022   1.405       .  A
C1021      H1025   1.083       .  S
C1022      N1026   1.438       .  S
N1024      H1027   1.046       .  S
N1024      H1028   1.046       .  S
N1026      H1029   1.046       .  S
N1026      H1030   1.045       .  S
C1035      C1036   1.417       .  A
C1035      C1040   1.404       .  A
C1036      C1037   1.408       .  A
C1036      N1041   1.438   1_556  S
C1037      C1038   1.400       .  A
C1037      H1042   1.084   1_556  S
C1038      C1039   1.410       .  A
C1038      C1043   1.485       .  S
C1039      C1040   1.407       .  A
C1039      N1044   1.438       .  S
C1040      H1045   1.084       .  S
N1041      H1061   1.045       .  S
N1041      H1062   1.046       .  S
C1043      C1046   1.404       .  A
C1043      C1050   1.418       .  A
N1044      H1059   1.046       .  S
N1044      H1060   1.046       .  S
C1046      C1047   1.403       .  A
C1046      H1051   1.084       .  S
C1047      C1048   1.406       .  A
C1047      N1052   1.433       .  S
C1048      C1049   1.402       .  A
C1049      C1050   1.404       .  A
C1049      H1053   1.084       .  S
C1050      N1054   1.439       .  S
N1052      H1055   1.046       .  S
N1052      H1056   1.046       .  S
N1054      H1057   1.047       .  S
N1054      H1058   1.041       .  S
C1063      C1064   1.410       .  A
C1063      C1068   1.409       .  A
C1064      C1065   1.405       .  A
C1064      N1069   1.432       .  S
C1065      C1066   1.405       .  A
C1065      H1070   1.082       .  S
C1066      C1067   1.408       .  A
C1066      C1071   1.487       .  S
C1067      C1068   1.408       .  A
C1067      N1072   1.437   1_556  S
C1068      H1073   1.084       .  S
N1069      H1089   1.046       .  S
N1069      H1090   1.046       .  S
C1071      C1074   1.405       .  A
C1071      C1078   1.409       .  A
N1072      H1087   1.046       .  S
N1072      H1088   1.046       .  S
C1074      C1075   1.408       .  A
C1074      H1079   1.084       .  S
C1075      C1076   1.409       .  A
C1075      N1080   1.432   1_556  S
C1076      C1077   1.406       .  A
C1077      C1078   1.405       .  A
C1077      H1081   1.084       .  S
C1078      N1082   1.437       .  S
N1080      H1083   1.045   1_554  S
N1080      H1084   1.045       .  S
N1082      H1085   1.047       .  S
N1082      H1086   1.045       .  S
C1091      C1502   1.417   1_455  A
C1092      C1501   1.418   1_655  A
C1092      C1093   1.409       .  A
C1092      N1097   1.438       .  S
C1093      H1098   1.084       .  S
C1094      C1095   1.408       .  A
C1094      C1099   1.480       .  S
C1095      C1096   1.407       .  A
C1095      N1100   1.439       .  S
C1096      H1101   1.083       .  S
N1097      H1117   1.045       .  S
N1097      H1118   1.046       .  S
C1099      C1512   1.405       .  A
N1100      H1115   1.045       .  S
N1100      H1116   1.045       .  S
C1102      C1509   1.404   1_565  A
C1102      C1103   1.407       .  A
C1102      H1107   1.084       .  S
C1103      C1514   1.405   1_565  A
C1103      N1108   1.430       .  S
C1104      N1298   1.436       .  S
C1104      C1513   1.404       .  A
C1105      C1106   1.411   1_655  A
C1105      H1109   1.082   1_655  S
C1106      N1110   1.437       .  S
N1108      H1111   1.046       .  S
N1108      H1112   1.045       .  S
N1110      H1113   1.046       .  S
N1110      H1114   1.045       .  S
C1119      C1530   1.414       .  A
C1120      C1529   1.416   1_545  A
C1120      C1121   1.410       .  A
C1120      N1125   1.438       .  S
C1121      H1126   1.084       .  S
C1122      C1123   1.406       .  A
C1122      C1127   1.484       .  S
C1123      C1124   1.404       .  A
C1123      N1128   1.438       .  S
C1124      H1129   1.083       .  S
N1125      H1145   1.045   1_455  S
N1125      H1146   1.046       .  S
C1127      C1544   1.411       .  A
N1128      H1143   1.046       .  S
N1128      H1144   1.046       .  S
C1130      C1131   1.401       .  A
C1130      H1135   1.084       .  S
C1131      N1136   1.432       .  S
C1132      C1133   1.402       .  A
C1133      C1134   1.411       .  A
C1133      H1137   1.083   1_565  S
C1134      C1537   1.412       .  A
C1134      N1138   1.437   1_565  S
N1136      H1139   1.045       .  S
N1136      H1140   1.045       .  S
N1138      H1141   1.046       .  S
N1138      H1142   1.045   1_545  S
C1147      C1148   1.408       .  A
C1147      C1152   1.402       .  A
C1148      C1149   1.399       .  A
C1148      N1153   1.432       .  S
C1149      C1150   1.402       .  A
C1149      H1154   1.084       .  S
C1150      C1151   1.415       .  A
C1150      C1155   1.492       .  S
C1151      C1152   1.413       .  A
C1151      N1156   1.437       .  S
C1152      H1157   1.083       .  S
N1153      H1173   1.046       .  S
N1153      H1174   1.045       .  S
C1155      C1158   1.403       .  A
C1155      C1162   1.410       .  A
N1156      H1171   1.045       .  S
N1156      H1172   1.046       .  S
C1158      C1159   1.411       .  A
C1158      H1163   1.084       .  S
C1159      C1160   1.419       .  A
C1159      N1164   1.437       .  S
C1160      C1161   1.409       .  A
C1161      C1162   1.405       .  A
C1161      H1165   1.083       .  S
C1162      N1166   1.438       .  S
N1164      H1167   1.046       .  S
N1164      H1168   1.046       .  S
N1166      H1169   1.046       .  S
N1166      H1170   1.046       .  S
C1175      C1176   1.411       .  A
C1175      C1180   1.407       .  A
C1176      C1177   1.402       .  A
C1176      N1181   1.431       .  S
C1177      C1178   1.399       .  A
C1177      H1182   1.084       .  S
C1178      C1179   1.408       .  A
C1178      C1183   1.483       .  S
C1179      C1180   1.410       .  A
C1179      N1184   1.432       .  S
C1180      H1185   1.083       .  S
N1181      H1201   1.045       .  S
N1181      H1202   1.045       .  S
C1183      C1186   1.399       .  A
C1183      C1190   1.412       .  A
N1184      H1199   1.045       .  S
N1184      H1200   1.045       .  S
C1186      C1187   1.405       .  A
C1186      H1191   1.084       .  S
C1187      C1188   1.413       .  A
C1187      N1192   1.433       .  S
C1188      C1189   1.404       .  A
C1189      C1190   1.409       .  A
C1189      H1193   1.084       .  S
C1190      N1194   1.437       .  S
N1192      H1195   1.046       .  S
N1192      H1196   1.046       .  S
N1194      H1197   1.046       .  S
N1194      H1198   1.045       .  S
C1203      C1204   1.407       .  A
C1203      C1208   1.405       .  A
C1204      C1205   1.409       .  A
C1204      N1209   1.431       .  S
C1205      C1206   1.405       .  A
C1205      H1210   1.084       .  S
C1206      C1207   1.407       .  A
C1206      C1211   1.483       .  S
C1207      C1208   1.403       .  A
C1207      N1212   1.438       .  S
C1208      H1213   1.084       .  S
N1209      H1229   1.045       .  S
N1209      H1230   1.046       .  S
C1211      C1214   1.401       .  A
C1211      C1218   1.404       .  A
N1212      H1227   1.046       .  S
N1212      H1228   1.046       .  S
C1214      C1215   1.407       .  A
C1214      H1219   1.084       .  S
C1215      C1216   1.419       .  A
C1215      N1220   1.438       .  S
C1216      C1217   1.412       .  A
C1217      C1218   1.407       .  A
C1217      H1221   1.083       .  S
C1218      N1222   1.437       .  S
N1220      H1223   1.046       .  S
N1220      H1224   1.046       .  S
N1222      H1225   1.046       .  S
N1222      H1226   1.046       .  S
N1231      C1235   1.359       .  A
N1231      C1232   1.358       .  A
N1231      C1557   1.439       .  S
C1232      C1233   1.379       .  A
C1232      C1613   1.477       .  S
C1233      C1234   1.370       .  A
C1233      H1236   1.082       .  S
C1234      C1235   1.381       .  A
C1234      H1237   1.078       .  S
C1235      C1585   1.486       .  S
Zn1238     O1242   1.942   1_655  S
Zn1238     O1243   2.044       .  S
Zn1238     O1247   2.023       .  S
Zn1239     O1242   1.942       .  S
Zn1239     O1246   2.010   1_455  S
Zn1239     O1250   2.024   1_556  S
Zn1240     O1245   2.029   1_565  S
Zn1240     O1248   2.017       .  S
Zn1241     O1252   2.049       .  S
Zn1241     O1253   2.070       .  S
O1243      C1255   1.277       .  A
O1244      C1256   1.276       .  A
O1246      C1255   1.272       .  A
O1247      C1257   1.275   1_655  A
O1248      C1256   1.275       .  A
O1249      C1258   1.275       .  A
O1250      C1259   1.277       .  A
O1251      C1258   1.276       .  A
O1253      C1260   1.282       .  A
O1254      C1260   1.273       .  A
C1255      C1445   1.477       .  S
C1256      C1626   1.497       .  S
C1257      C1501   1.488       .  S
C1258      C1473   1.487       .  S
C1259      C1529   1.483       .  S
C1260      C1598   1.502       .  S
N1261      C1265   1.359       .  A
N1261      C1262   1.360       .  A
N1261      C1417   1.445   1_556  S
C1262      C1263   1.378       .  A
C1262      C1486   1.484       .  S
C1263      C1264   1.369       .  A
C1263      H1266   1.076       .  S
C1264      C1265   1.379       .  A
C1264      H1267   1.082       .  S
C1265      C1458   1.476       .  S
N1268      C1542   1.439       .  S
C1269      C1270   1.378       .  A
C1269      C1389   1.477       .  S
C1270      H1273   1.077       .  S
C1271      C1272   1.379       .  A
C1271      H1274   1.081       .  S
C1272      C1361   1.474       .  S
Zn1275     O1279   1.932       .  S
Zn1275     O1280   2.026       .  S
Zn1275     O1284   2.026       .  S
Zn1275     O1291   1.994       .  S
Zn1276     O1279   1.926       .  S
Zn1276     O1281   2.004       .  S
Zn1276     O1283   2.021       .  S
Zn1276     O1287   2.013       .  S
Zn1277     O1279   1.936       .  S
Zn1277     O1282   2.024       .  S
Zn1277     O1285   2.044       .  S
Zn1277     O1288   2.029       .  S
Zn1278     O1279   1.946       .  S
Zn1278     O1286   2.029       .  S
Zn1278     O1289   2.024       .  S
Zn1278     O1290   2.050       .  S
O1280      C1292   1.276       .  A
O1281      C1293   1.272       .  A
O1282      C1294   1.276       .  A
O1283      C1292   1.277       .  A
O1284      C1294   1.276       .  A
O1285      C1293   1.279       .  A
O1286      C1295   1.277       .  A
O1287      C1296   1.275       .  A
O1288      C1295   1.278       .  A
O1289      C1296   1.274       .  A
O1290      C1297   1.279       .  A
O1291      C1297   1.272       .  A
C1292      C1570   1.495       .  S
C1293      C1305   1.496       .  S
C1294      C1374   1.488       .  S
C1295      C1430   1.498       .  S
C1296      C1402   1.492       .  S
C1297      C1346   1.491       .  S
N1298      C1302   1.354       .  A
C1299      C1300   1.380       .  A
C1299      C1333   1.482   1_545  S
C1300      H1303   1.078       .  S
C1301      C1302   1.380       .  A
C1301      H1304   1.082       .  S
C1302      C1318   1.474       .  S
C1305      C1306   1.424       .  A
C1305      C1310   1.407       .  A
C1306      C1307   1.408       .  A
C1306      N1311   1.438       .  S
C1307      C1308   1.398       .  A
C1307      H1312   1.084       .  S
C1308      C1309   1.408       .  A
C1308      C1313   1.481       .  S
C1309      C1310   1.405       .  A
C1309      N1314   1.438       .  S
C1310      H1315   1.083       .  S
N1311      H1331   1.046       .  S
N1311      H1332   1.046       .  S
C1313      C1316   1.403       .  A
C1313      C1320   1.417       .  A
N1314      H1329   1.045       .  S
N1314      H1330   1.046       .  S
C1316      C1317   1.397       .  A
C1316      H1321   1.084       .  S
C1317      C1318   1.409       .  A
C1317      N1322   1.433       .  S
C1318      C1319   1.402       .  A
C1319      C1320   1.404       .  A
C1319      H1323   1.084       .  S
C1320      N1324   1.438       .  S
N1322      H1325   1.046       .  S
N1322      H1326   1.045       .  S
N1324      H1327   1.046       .  S
N1324      H1328   1.043       .  S
C1333      C1334   1.412       .  A
C1333      C1338   1.403       .  A
C1334      C1335   1.405       .  A
C1334      N1339   1.437   1_565  S
C1335      C1336   1.402       .  A
C1335      H1340   1.084       .  S
C1336      C1337   1.410       .  A
C1336      C1341   1.484       .  S
C1337      C1338   1.408       .  A
C1337      N1342   1.437       .  S
C1338      H1343   1.084       .  S
N1339      H1360   1.045       .  S
C1341      C1344   1.404       .  A
C1341      C1348   1.406       .  A
N1342      H1357   1.045       .  S
N1342      H1358   1.045       .  S
C1344      C1345   1.410       .  A
C1344      H1349   1.084       .  S
C1345      C1346   1.415       .  A
C1345      N1350   1.437       .  S
C1346      C1347   1.410       .  A
C1347      C1348   1.404       .  A
C1347      H1351   1.083       .  S
C1348      N1352   1.438       .  S
N1350      H1353   1.046       .  S
N1350      H1354   1.046       .  S
N1352      H1355   1.046       .  S
N1352      H1356   1.046       .  S
C1361      C1362   1.407       .  A
C1361      C1366   1.402       .  A
C1362      C1363   1.405       .  A
C1362      N1367   1.437       .  S
C1363      C1364   1.404       .  A
C1363      H1368   1.084       .  S
C1364      C1365   1.411       .  A
C1364      C1369   1.484       .  S
C1365      C1366   1.407       .  A
C1365      N1370   1.437       .  S
C1366      H1371   1.084       .  S
C1369      C1372   1.401       .  A
C1369      C1376   1.408       .  A
N1370      H1385   1.046       .  S
N1370      H1386   1.045       .  S
C1372      C1373   1.407       .  A
C1372      H1377   1.084       .  S
C1373      C1374   1.417       .  A
C1373      N1378   1.438       .  S
C1374      C1375   1.406       .  A
C1375      C1376   1.404       .  A
C1375      H1379   1.084       .  S
C1376      N1380   1.432       .  S
N1378      H1381   1.046       .  S
N1378      H1382   1.046       .  S
N1380      H1383   1.046       .  S
N1380      H1384   1.046       .  S
C1389      C1390   1.407       .  A
C1389      C1394   1.402       .  A
C1390      C1391   1.406       .  A
C1390      N1395   1.432   1_655  S
C1391      C1392   1.404       .  A
C1391      H1396   1.084       .  S
C1392      C1393   1.412       .  A
C1392      C1397   1.488       .  S
C1393      C1394   1.405       .  A
C1393      N1398   1.437       .  S
C1394      H1399   1.084       .  S
C1397      C1400   1.402       .  A
C1397      C1404   1.409       .  A
N1398      H1413   1.046       .  S
N1398      H1414   1.045       .  S
C1400      C1401   1.411       .  A
C1400      H1405   1.084       .  S
C1401      C1402   1.421       .  A
C1401      N1406   1.438       .  S
C1402      C1403   1.405       .  A
C1403      C1404   1.399       .  A
C1403      H1407   1.084       .  S
C1404      N1408   1.432       .  S
N1406      H1409   1.046       .  S
N1406      H1410   1.046       .  S
N1408      H1411   1.046       .  S
N1408      H1412   1.046       .  S
C1417      C1418   1.412       .  A
C1417      C1422   1.404       .  A
C1418      C1419   1.402       .  A
C1418      N1423   1.432       .  S
C1419      C1420   1.401       .  A
C1419      H1424   1.084       .  S
C1420      C1421   1.410       .  A
C1420      C1425   1.484       .  S
C1421      C1422   1.407       .  A
C1421      N1426   1.437       .  S
C1422      H1427   1.081       .  S
N1423      H1443   1.046       .  S
N1423      H1444   1.045       .  S
C1425      C1428   1.400       .  A
C1425      C1432   1.407       .  A
N1426      H1441   1.045       .  S
N1426      H1442   1.046       .  S
C1428      C1429   1.407       .  A
C1428      H1433   1.084       .  S
C1429      C1430   1.421       .  A
C1429      N1434   1.438       .  S
C1430      C1431   1.411       .  A
C1431      C1432   1.407       .  A
C1431      H1435   1.083       .  S
C1432      N1436   1.438       .  S
N1434      H1437   1.046       .  S
N1434      H1438   1.046       .  S
N1436      H1439   1.046       .  S
N1436      H1440   1.045       .  S
C1445      C1446   1.413       .  A
C1445      C1450   1.401       .  A
C1446      C1447   1.408       .  A
C1446      N1451   1.438   1_556  S
C1447      C1448   1.402       .  A
C1447      H1452   1.084   1_556  S
C1448      C1449   1.412       .  A
C1448      C1453   1.485       .  S
C1449      C1450   1.407       .  A
C1449      N1454   1.438       .  S
C1450      H1455   1.084       .  S
N1451      H1471   1.046   1_554  S
N1451      H1472   1.046       .  S
C1453      C1456   1.403       .  A
C1453      C1460   1.420       .  A
N1454      H1469   1.046       .  S
N1454      H1470   1.046       .  S
C1456      C1457   1.403       .  A
C1456      H1461   1.084       .  S
C1457      C1458   1.409       .  A
C1457      N1462   1.438       .  S
C1458      C1459   1.400       .  A
C1459      C1460   1.406       .  A
C1459      H1463   1.084   1_556  S
C1460      N1464   1.438   1_556  S
N1462      H1465   1.046       .  S
N1462      H1466   1.046       .  S
N1464      H1467   1.046   1_554  S
N1464      H1468   1.042       .  S
C1473      C1474   1.410       .  A
C1473      C1478   1.409       .  A
C1474      C1475   1.401       .  A
C1474      N1479   1.433       .  S
C1475      C1476   1.403       .  A
C1475      H1480   1.078       .  S
C1476      C1477   1.409       .  A
C1476      C1481   1.489       .  S
C1477      C1478   1.409       .  A
C1477      N1482   1.437   1_556  S
C1478      H1483   1.083       .  S
N1479      H1499   1.046       .  S
N1479      H1500   1.046       .  S
C1481      C1484   1.404       .  A
C1481      C1488   1.411       .  A
N1482      H1497   1.044       .  S
N1482      H1498   1.047       .  S
C1484      C1485   1.405       .  A
C1484      H1489   1.084       .  S
C1485      C1486   1.410       .  A
C1485      N1490   1.431       .  S
C1486      C1487   1.405       .  A
C1487      C1488   1.405       .  A
C1487      H1491   1.084       .  S
C1488      N1492   1.438       .  S
N1490      H1493   1.045       .  S
N1490      H1494   1.045   1_556  S
N1492      H1495   1.046       .  S
N1492      H1496   1.045       .  S
C1502      C1503   1.404       .  A
C1502      N1507   1.432       .  S
C1503      H1508   1.084       .  S
C1504      C1505   1.406   1_545  A
C1504      C1509   1.481       .  S
C1505      C1506   1.406       .  A
C1505      N1510   1.438       .  S
C1506      H1511   1.083       .  S
N1507      H1527   1.046       .  S
N1507      H1528   1.046       .  S
N1510      H1525   1.046       .  S
N1510      H1526   1.045       .  S
C1512      C1513   1.407       .  A
C1512      H1517   1.084       .  S
C1513      N1518   1.430       .  S
C1515      C1516   1.413       .  A
C1515      H1519   1.083       .  S
C1516      N1520   1.437       .  S
N1518      H1521   1.045       .  S
N1518      H1522   1.046       .  S
N1520      H1523   1.046       .  S
N1520      H1524   1.046       .  S
C1530      C1531   1.408       .  A
C1530      N1535   1.432   1_455  S
C1531      H1536   1.084   1_455  S
C1532      C1533   1.407       .  A
C1532      C1537   1.480       .  S
C1533      C1534   1.407       .  A
C1533      N1538   1.438       .  S
C1534      H1539   1.083       .  S
N1535      H1555   1.046       .  S
N1535      H1556   1.046   1_655  S
N1538      H1553   1.046       .  S
N1538      H1554   1.045       .  S
C1540      C1541   1.398       .  A
C1540      H1545   1.084       .  S
C1541      N1546   1.432       .  S
C1542      C1543   1.401       .  A
C1543      C1544   1.410       .  A
C1543      H1547   1.083       .  S
C1544      N1548   1.437       .  S
N1546      H1549   1.046       .  S
N1546      H1550   1.046       .  S
N1548      H1551   1.046       .  S
N1548      H1552   1.045       .  S
C1557      C1558   1.406       .  A
C1557      C1562   1.402       .  A
C1558      C1559   1.398       .  A
C1558      N1563   1.432       .  S
C1559      C1560   1.403       .  A
C1559      H1564   1.084       .  S
C1560      C1561   1.415       .  A
C1560      C1565   1.490       .  S
C1561      C1562   1.412       .  A
C1561      N1566   1.437       .  S
C1562      H1567   1.083       .  S
N1563      H1583   1.046       .  S
N1563      H1584   1.045       .  S
C1565      C1568   1.402       .  A
C1565      C1572   1.411       .  A
N1566      H1581   1.046       .  S
N1566      H1582   1.045       .  S
C1568      C1569   1.408       .  A
C1568      H1573   1.083       .  S
C1569      C1570   1.419       .  A
C1569      N1574   1.438       .  S
C1570      C1571   1.408       .  A
C1571      C1572   1.405       .  A
C1571      H1575   1.083       .  S
C1572      N1576   1.438       .  S
N1574      H1577   1.046       .  S
N1574      H1578   1.046       .  S
N1576      H1579   1.046       .  S
N1576      H1580   1.046       .  S
C1585      C1586   1.408       .  A
C1585      C1590   1.405       .  A
C1586      C1587   1.402       .  A
C1586      N1591   1.429       .  S
C1587      C1588   1.402       .  A
C1587      H1592   1.084       .  S
C1588      C1589   1.413       .  A
C1588      C1593   1.493       .  S
C1589      C1590   1.411       .  A
C1589      N1594   1.431       .  S
C1590      H1595   1.084       .  S
N1591      H1611   1.046       .  S
N1591      H1612   1.043       .  S
C1593      C1596   1.401       .  A
C1593      C1600   1.412       .  A
N1594      H1609   1.045       .  S
N1594      H1610   1.045       .  S
C1596      C1597   1.405       .  A
C1596      H1601   1.084       .  S
C1597      C1598   1.421       .  A
C1597      N1602   1.433       .  S
C1598      C1599   1.408       .  A
C1599      C1600   1.409       .  A
C1599      H1603   1.083       .  S
C1600      N1604   1.431       .  S
N1602      H1605   1.046       .  S
N1602      H1606   1.046       .  S
N1604      H1607   1.046       .  S
N1604      H1608   1.045       .  S
C1613      C1614   1.406       .  A
C1613      C1618   1.402       .  A
C1614      C1615   1.408       .  A
C1614      N1619   1.432       .  S
C1615      C1616   1.405       .  A
C1615      H1620   1.084       .  S
C1616      C1617   1.409       .  A
C1616      C1621   1.482       .  S
C1617      C1618   1.404       .  A
C1617      N1622   1.438       .  S
C1618      H1623   1.084       .  S
N1619      H1639   1.046       .  S
N1619      H1640   1.046       .  S
C1621      C1624   1.402       .  A
C1621      C1628   1.405       .  A
N1622      H1637   1.046       .  S
N1622      H1638   1.044       .  S
C1624      C1625   1.409       .  A
C1624      H1629   1.084       .  S
C1625      C1626   1.419       .  A
C1625      N1630   1.438       .  S
C1626      C1627   1.412       .  A
C1627      C1628   1.406       .  A
C1627      H1631   1.083       .  S
C1628      N1632   1.438       .  S
N1630      H1633   1.045       .  S
N1630      H1634   1.046       .  S
N1632      H1635   1.045       .  S
N1632      H1636   1.045       .  S
