geometry optimzed in LAMMPS
_audit_creation_date              2020-12-01 
_audit_creation_method            'lammps2cif' 
_symmetry_space_group_name_H-M    'P1' 
_symmetry_Int_Tables_number       1 
_symmetry_cell_setting            triclinic 
loop_ 
_symmetry_equiv_pos_as_xyz 
  x,y,z 
_cell_length_a                    35.66586608 
_cell_length_b                    25.99683866660481 
_cell_length_c                    26.697732691916055 
_cell_angle_alpha                 90.00081208131516 
_cell_angle_beta                  89.96582329630745 
_cell_angle_gamma                 90.10344017594801 
loop_ 
_atom_site_label 
_atom_site_type_symbol 
_atom_site_fract_x 
_atom_site_fract_y 
_atom_site_fract_z 
_atom_site_charge 
N1          N  0.51009132  0.57932355  0.49463440    -0.34200
N2          N  0.00496491  0.49936087  0.41656631    -0.54800
N3          N  0.00886859  0.42117331  0.99370953    -0.34200
N4          N  0.00761752  0.50179577  0.07081712    -0.54800
C5          C  0.49646749  0.60831128  0.45627811     0.29400
C6          C  0.50877575  0.60806086  0.02999282     0.29400
C7          C  0.01285119  0.39116004  0.45546052     0.29400
C8          C  0.99479872  0.39360501  0.03278080     0.29400
C9          C  0.50131545  0.54248663  0.38756608     0.38000
C10         C  0.00895747  0.45756377  0.38703879     0.38000
C11         C  0.50172619  0.54396103  0.10011700     0.38000
C12         C  0.00271646  0.46006366  0.10051437     0.38000
C13         C  0.48997448  0.65769879  0.47414663    -0.19500
C14         C  0.51593431  0.65700054  0.01129504    -0.19500
C15         C  0.01751301  0.34111257  0.47261169    -0.19500
C16         C  0.98581037  0.34463308  0.01563777    -0.19500
C17         C  0.50781327  0.52975788  0.33784024    -0.20600
C18         C  0.00370374  0.47157648  0.33737517    -0.20600
C19         C  0.49387051  0.53237371  0.14979074    -0.20600
C20         C  0.00952957  0.47346359  0.14998206    -0.20600
C21         C  0.49186523  0.59246334  0.40513869    -0.15900
C22         C  0.51121188  0.59372076  0.08178277    -0.15900
C23         C  0.99194695  0.41016870  0.08387834    -0.15900
C24         C  0.01699541  0.40705696  0.40420355    -0.15900
H25         H  0.47961322  0.69026830  0.45307166     0.17000
H26         H  0.52557934  0.69017549  0.03215574     0.17000
H27         H  0.02580189  0.30793377  0.45079045     0.17000
H28         H  0.97433974  0.31315899  0.03734928     0.17000
H29         H  0.50646450  0.55500257  0.30564819     0.15300
H30         H  0.00493687  0.44693823  0.30473153     0.15300
H31         H  0.49403112  0.55846643  0.18139142     0.15300
H32         H  0.00769448  0.44886665  0.18260937     0.15300
H33         H  0.52087114  0.54251016  0.49191960     0.28500
H34         H  0.02142830  0.45703997  0.99572302     0.28500
O35         O  0.99803868  0.25952879  0.16758903    -0.79400
C36         C  0.48899543  0.13468467  0.34264364     0.99900
O37         O  0.46583133  0.17194356  0.33623170    -0.68500
O38         O  0.50574568  0.25772293  0.31888060    -0.72100
Al39       Al  0.46727196  0.22704446  0.28221495     1.49000
C40         C  0.02492962  0.29295479  0.30072890     0.95200
O41         O  0.07333456  0.20101481  0.24533194    -0.78300
O42         O  0.99035368  0.12445618  0.17810858    -0.71900
Al43       Al  0.03411634  0.22845888  0.20812968     1.90100
O44         O  0.05421309  0.12088727  0.23904533    -0.71000
O45         O  0.44524911  0.11913967  0.25688430    -0.70800
O46         O  0.51292869  0.12496066  0.31030936    -0.76500
O47         O  0.42587232  0.19898425  0.24871496    -0.74700
O48         O  0.99976393  0.19600995  0.24347617    -1.10800
O49         O  0.46297659  0.28795154  0.23532761    -0.70000
C50         C  0.47313979  0.29222251  0.18932652     1.00700
C51         C  0.07999754  0.15384603  0.24703530     0.97100
Al52       Al  0.49957874  0.12657810  0.24442699     1.55600
O53         O  0.03699161  0.28904801  0.25549460    -0.74600
C54         C  0.41892285  0.15171789  0.25102819     1.01300
C55         C  0.01547388  0.13457694  0.14747094     0.96100
O56         O  0.03784919  0.17262591  0.15508855    -0.80000
N57         N  0.19367854  0.00111146  0.28009475    -0.34200
N58         N  0.24770998  0.91964758  0.28450189    -0.54800
N59         N  0.30276865  0.00075620  0.28492952    -0.34200
N60         N  0.24877896  0.08209612  0.28086059    -0.54800
C61         C  0.17241317  0.95939615  0.28977736     0.28400
C62         C  0.17305202  0.04257994  0.29254014     0.29400
C63         C  0.32280203  0.95987163  0.30060655     0.29400
C64         C  0.32358072  0.04296283  0.29445362     0.29400
C65         C  0.21797560  0.89228748  0.26808775     0.38000
C66         C  0.27868561  0.89164422  0.27495731     0.38000
C67         C  0.21837175  0.10976979  0.26801646     0.38000
C68         C  0.27920733  0.10896773  0.26613384     0.38000
C69         C  0.13832053  0.97425424  0.31014077    -0.19500
C70         C  0.13879429  0.02691704  0.31215913    -0.19500
C71         C  0.35610763  0.97648804  0.32220025    -0.19500
C72         C  0.35667355  0.02908483  0.31807352    -0.19500
C73         C  0.22985220  0.84530350  0.24945717    -0.20600
C74         C  0.26859778  0.84484090  0.25393995    -0.20600
C75         C  0.22940524  0.15593127  0.24649612    -0.20600
C76         C  0.26826928  0.15533825  0.24513752    -0.20600
C77         C  0.18068871  0.90984191  0.27236652    -0.15900
C78         C  0.18136330  0.09293500  0.27706324    -0.15900
C79         C  0.31616923  0.09169709  0.27421462    -0.15900
C80         C  0.31533359  0.90891570  0.28611625    -0.15900
H81         H  0.11485144  0.94983648  0.32009101     0.17000
H82         H  0.11562628  0.05100628  0.32372426     0.17000
H83         H  0.37873775  0.95291885  0.33635769     0.17000
H84         H  0.37967383  0.05401377  0.32871864     0.17000
H85         H  0.21251981  0.81480853  0.23437865     0.15300
H86         H  0.28713659  0.81400149  0.24273328     0.15300
H87         H  0.21143453  0.18643785  0.23302261     0.15300
H88         H  0.28629365  0.18542217  0.23070752     0.15300
H89         H  0.21734271  0.00140023  0.25727991     0.28500
H90         H  0.28021479  0.99937716  0.26026098     0.28500
O91         O  0.49623543  0.74294517  0.16910173    -0.79400
C92         C  0.00835009  0.86836886  0.34005980     0.99900
O93         O  0.03130787  0.83060013  0.33479862    -0.68500
O94         O  0.99313158  0.74354622  0.32005288    -0.72100
Al95       Al  0.03080523  0.77429629  0.28193906     1.49000
C96         C  0.47682279  0.70819111  0.30391177     0.95200
O97         O  0.42412725  0.80043096  0.25385723    -0.78300
O98         O  0.50311841  0.87800446  0.17832015    -0.71900
Al99       Al  0.46185759  0.77335810  0.21290271     1.90100
O100        O  0.44221741  0.88077627  0.24479582    -0.71000
O101        O  0.05197927  0.88180988  0.25241840    -0.70800
O102        O  0.98532789  0.87874436  0.30679185    -0.76500
O103        O  0.07174732  0.80211386  0.24761347    -0.74700
O104        O  0.49753879  0.80656880  0.24493682    -1.10800
O105        O  0.03603862  0.71319796  0.23496276    -0.70000
C106        C  0.02558209  0.70852529  0.18899469     1.00700
C107        C  0.41708316  0.84762463  0.25549860     0.97100
Al108      Al  0.99772640  0.87280868  0.24110177     1.55600
O109        O  0.46232856  0.71233502  0.26001108    -0.74600
C110        C  0.07848370  0.84935625  0.24811317     1.01300
C111        C  0.47629694  0.86759767  0.15042305     0.96100
O112        O  0.45475920  0.82916070  0.16035623    -0.80000
C113        C  0.51187725  0.97279013  0.44835898     0.04700
C114        C  0.98800882  0.02885227  0.44915581     0.04600
C115        C  0.99219774  0.05331330  0.49515487    -0.15900
C116        C  0.00139967  0.02650753  0.04052226     0.04700
C117        C  0.48217526  0.97394242  0.04033211     0.04600
C118        C  0.51023682  0.94645187  0.49366335    -0.15900
H119        H  0.51002703  0.90459276  0.49343714     0.06700
H120        H  0.99416577  0.09507124  0.49617361     0.06700
C121        C  0.47044810  0.90517870  0.11140162    -0.10900
C122        C  0.47489351  0.94198854  0.08385997    -0.12400
C123        C  0.00848721  0.90538038  0.38004025    -0.10900
C124        C  0.00024329  0.94198211  0.40600887    -0.12400
C125        C  0.11708201  0.86503738  0.24912593    -0.10900
C126        C  0.14871956  0.87936044  0.25716843    -0.12400
C127        C  0.37942272  0.86287528  0.26746637    -0.10900
C128        C  0.34805463  0.87765724  0.27642029    -0.12400
C129        C  0.01163237  0.05974029  0.08195909    -0.10900
C130        C  0.01849421  0.09696104  0.10801444    -0.12400
C131        C  0.48776944  0.09716785  0.38220713    -0.10900
C132        C  0.49576039  0.06012695  0.40775465    -0.12400
C133        C  0.34866343  0.12156247  0.25982954    -0.10900
C134        C  0.38030563  0.13611490  0.25222765    -0.12400
C135        C  0.14926274  0.12430016  0.26537427    -0.10900
C136        C  0.11784369  0.13858895  0.25663942    -0.12400
C137        C  0.46827213  0.33855151  0.15940238    -0.10900
C138        C  0.47373236  0.37204074  0.12811355    -0.12400
C139        C  0.03211616  0.33669089  0.33326563    -0.10900
C140        C  0.02769386  0.36890393  0.36598776    -0.12400
C141        C  0.03103284  0.63201087  0.12421628    -0.10900
C142        C  0.03398439  0.66445779  0.15717649    -0.12400
C143        C  0.47269683  0.66323791  0.33605884    -0.10900
C144        C  0.47924246  0.63039664  0.36762132    -0.12400
N145        N  0.49656867  0.57797149  0.99158634    -0.34200
N146        N  0.00649772  0.49869106  0.91708880    -0.54800
N147        N  0.00165424  0.42090418  0.49474984    -0.34200
N148        N  0.00720985  0.49948170  0.57158006    -0.54800
C149        C  0.49634837  0.60659524  0.94896722     0.29400
C150        C  0.51156556  0.60898098  0.53654367     0.29400
C151        C  0.00831806  0.39096968  0.95213861     0.29400
C152        C  0.99979791  0.39091131  0.53638655     0.29400
C153        C  0.49127291  0.53597199  0.88601760     0.38000
C154        C  0.01575292  0.45871739  0.88697179     0.38000
C155        C  0.51923501  0.53966792  0.60057588     0.38000
C156        C  0.99790573  0.45958486  0.60196035     0.38000
C157        C  0.50757911  0.65626009  0.96059420    -0.19500
C158        C  0.49998443  0.65830426  0.52431059    -0.19500
C159        C  0.99483357  0.34276310  0.96518085    -0.19500
C160        C  0.00873604  0.34081259  0.52318965    -0.19500
C161        C  0.48983806  0.51751844  0.83732973    -0.20600
C162        C  0.01776691  0.47538697  0.83768024    -0.20600
C163        C  0.52307766  0.52190740  0.64932078    -0.20600
C164        C  0.99880715  0.47574050  0.65144759    -0.20600
C165        C  0.48724138  0.58852676  0.89981514    -0.15900
C166        C  0.52195619  0.59213300  0.58568573    -0.15900
C167        C  0.99153123  0.40793732  0.58616431    -0.15900
C168        C  0.01832709  0.40661567  0.90255904    -0.15900
H169        H  0.51049342  0.68828143  0.93496046     0.17000
H170        H  0.49787895  0.69099244  0.54926188     0.17000
H171        H  0.99072125  0.31015361  0.94056643     0.17000
H172        H  0.00997548  0.30773660  0.54776069     0.17000
H173        H  0.48411268  0.53915743  0.80356272     0.15300
H174        H  0.02362472  0.45248438  0.80474034     0.15300
H175        H  0.53065161  0.54403824  0.68214406     0.15300
H176        H  0.99325711  0.45291093  0.68454764     0.15300
H177        H  0.48552598  0.54130214  0.99465643     0.28500
H178        H  0.99251453  0.45861551  0.49307878     0.28500
O179        O  0.99545778  0.25430054  0.66807057    -0.79400
C180        C  0.47812675  0.13121081  0.83663723     0.99900
O181        O  0.45643297  0.16922969  0.82613236    -0.68500
O182        O  0.49694627  0.25588498  0.81827167    -0.72100
Al183      Al  0.46361016  0.22501684  0.77353077     1.49000
C184        C  0.02389875  0.28959762  0.80033529     0.95200
O185        O  0.07290338  0.19762071  0.74349302    -0.78300
O186        O  0.98949605  0.11842369  0.68040286    -0.71900
Al187      Al  0.03256928  0.22423842  0.70766259     1.90100
O188        O  0.05439079  0.11717767  0.73858026    -0.71000
O189        O  0.44483518  0.11734260  0.74255467    -0.70800
O190        O  0.50503253  0.12056067  0.80886383    -0.76500
O191        O  0.42657542  0.19716122  0.73154045    -0.74700
O192        O  0.99924568  0.19154300  0.74419814    -1.10800
O193        O  0.46440833  0.28629232  0.72676438    -0.70000
C194        C  0.47976300  0.29131157  0.68347484     1.00700
C195        C  0.08013003  0.15058039  0.74478281     0.97100
Al196      Al  0.49970452  0.12488653  0.74087135     1.55600
O197        O  0.03568036  0.28522368  0.75493519    -0.74600
C198        C  0.41934206  0.14996120  0.73257496     1.01300
C199        C  0.01336811  0.12964963  0.64837926     0.96100
O200        O  0.03545933  0.16824969  0.65481490    -0.80000
N201        N  0.19543327  0.99950457  0.76841505    -0.34200
N202        N  0.24860281  0.91728736  0.76555847    -0.54800
N203        N  0.30409880  0.99730290  0.76032261    -0.34200
N204        N  0.25054582  0.07954156  0.76279504    -0.54800
C205        C  0.17472369  0.95800847  0.78058578     0.28400
C206        C  0.17606722  0.04111842  0.78361131     0.29400
C207        C  0.32445362  0.95614669  0.77454679     0.29400
C208        C  0.32549866  0.03924008  0.76852053     0.29400
C209        C  0.21775946  0.89085495  0.75174879     0.38000
C210        C  0.27861491  0.88890241  0.75254587     0.38000
C211        C  0.21961618  0.10734772  0.75272323     0.38000
C212        C  0.28015347  0.10574449  0.74449386     0.38000
C213        C  0.14244977  0.97308593  0.80556017    -0.19500
C214        C  0.14339255  0.02576994  0.80773645    -0.19500
C215        C  0.35865809  0.97232873  0.79386075    -0.19500
C216        C  0.35938904  0.02491400  0.78978989    -0.19500
C217        C  0.22801571  0.84416110  0.73081149    -0.20600
C218        C  0.26691350  0.84279353  0.73155679    -0.20600
C219        C  0.22957063  0.15284573  0.72905971    -0.20600
C220        C  0.26826383  0.15180605  0.72378023    -0.20600
C221        C  0.18114200  0.90882488  0.76104309    -0.15900
C222        C  0.18325447  0.09114022  0.76638226    -0.15900
C223        C  0.31734967  0.08827756  0.74947297    -0.15900
C224        C  0.31580625  0.90517991  0.76122271    -0.15900
H225        H  0.11962424  0.94884108  0.81821948     0.17000
H226        H  0.12129103  0.05010856  0.82218218     0.17000
H227        H  0.38159670  0.94854565  0.80672775     0.17000
H228        H  0.38286151  0.04953520  0.79919153     0.17000
H229        H  0.20953496  0.81434116  0.71692955     0.15300
H230        H  0.28445742  0.81185746  0.71798596     0.15300
H231        H  0.21100920  0.18323853  0.71683857     0.15300
H232        H  0.28555630  0.18134290  0.70689457     0.15300
H233        H  0.21715507  0.99963448  0.74234661     0.28500
H234        H  0.28040330  0.99633146  0.73758958     0.28500
O235        O  0.50778998  0.74291327  0.66834701    -0.79400
C236        C  0.01287382  0.86313902  0.84337919     0.99900
O237        O  0.03633391  0.82687586  0.83438521    -0.68500
O238        O  0.99717594  0.73983535  0.82025157    -0.72100
Al239      Al  0.03291330  0.77208434  0.78032282     1.49000
C240        C  0.47521039  0.70509305  0.79784662     0.95200
O241        O  0.42581277  0.79612739  0.73799615    -0.78300
O242        O  0.51115835  0.87690685  0.67981784    -0.71900
Al243      Al  0.46824314  0.77098616  0.70494071     1.90100
O244        O  0.44301118  0.87722601  0.73237871    -0.71000
O245        O  0.05109590  0.88087137  0.75421559    -0.70800
O246        O  0.98633059  0.87076557  0.81435467    -0.76500
O247        O  0.07151941  0.80186655  0.74315842    -0.74700
O248        O  0.49902910  0.80533157  0.74394971    -1.10800
O249        O  0.03658315  0.71200051  0.73271345    -0.70000
C250        C  0.02499488  0.70805954  0.68736182     1.00700
C251        C  0.41776120  0.84305117  0.73861204     0.97100
Al252      Al  0.99628223  0.87134621  0.74704395     1.55600
O253        O  0.46509565  0.70909817  0.75168380    -0.74600
C254        C  0.07764882  0.84927004  0.74545199     1.01300
C255        C  0.48862439  0.86555747  0.64624678     0.96100
O256        O  0.46627576  0.82696777  0.65155419    -0.80000
C257        C  0.48650916  0.97117972  0.94943675     0.04700
C258        C  0.99545769  0.02662649  0.94980719     0.04600
C259        C  0.99679118  0.05257449  0.99542485    -0.15900
C260        C  0.99507970  0.02560184  0.53968782     0.04700
C261        C  0.50791799  0.97231637  0.53916228     0.04600
C262        C  0.48238262  0.94659222  0.99544466    -0.15900
H263        H  0.48092844  0.90479825  0.99646699     0.06700
H264        H  0.99475898  0.09432905  0.99579444     0.06700
C265        C  0.48838586  0.90242123  0.60597988    -0.10900
C266        C  0.49685957  0.93935068  0.58037797    -0.12400
C267        C  0.01695786  0.90236717  0.88105544    -0.10900
C268        C  0.01142859  0.94013411  0.90677982    -0.12400
C269        C  0.11597367  0.86571403  0.74352079    -0.10900
C270        C  0.14800923  0.87954633  0.74872402    -0.12400
C271        C  0.37918484  0.85704081  0.74534301    -0.10900
C272        C  0.34765458  0.87229468  0.75196807    -0.12400
C273        C  0.00712487  0.05667494  0.58163501    -0.10900
C274        C  0.01517032  0.09296462  0.60817343    -0.12400
C275        C  0.47229374  0.09436777  0.87633640    -0.10900
C276        C  0.47659723  0.05805260  0.90446441    -0.12400
C277        C  0.34925832  0.11904538  0.73477766    -0.10900
C278        C  0.38085423  0.13443933  0.72883235    -0.12400
C279        C  0.15043941  0.12213789  0.75742684    -0.10900
C280        C  0.11851658  0.13596978  0.75148784    -0.12400
C281        C  0.47598232  0.33670236  0.65171862    -0.10900
C282        C  0.48251931  0.37001688  0.62051712    -0.12400
C283        C  0.03051288  0.33431416  0.83203970    -0.10900
C284        C  0.02664287  0.36738930  0.86417384    -0.12400
C285        C  0.02962852  0.63104466  0.62290654    -0.10900
C286        C  0.03270306  0.66416946  0.65509974    -0.12400
C287        C  0.47135397  0.65863918  0.82819696    -0.10900
C288        C  0.47722722  0.62596775  0.86029625    -0.12400
N289        N  0.00989193  0.57817497  0.49301361    -0.34200
N290        N  0.50556964  0.50016439  0.41657316    -0.54800
N291        N  0.49586092  0.41999554  0.99779275    -0.34200
N292        N  0.49866133  0.50078979  0.07202276    -0.54800
C293        C  0.99998848  0.60818868  0.45323284     0.29400
C294        C  0.01392814  0.60984246  0.03531246     0.29400
C295        C  0.51022652  0.39182463  0.45031901     0.29400
C296        C  0.49406145  0.39135917  0.04030827     0.29400
C297        C  0.99682463  0.53975722  0.38663705     0.38000
C298        C  0.51562892  0.46095447  0.38594896     0.38000
C299        C  0.01823794  0.54133310  0.10077818     0.38000
C300        C  0.48793430  0.46218789  0.10306775     0.38000
C301        C  0.99957531  0.65906043  0.46903129    -0.19500
C302        C  0.00378944  0.65943084  0.02184757    -0.19500
C303        C  0.49817396  0.34274127  0.46281506    -0.19500
C304        C  0.50420762  0.34122486  0.02894225    -0.19500
C305        C  0.99542339  0.52335608  0.33720023    -0.20600
C306        C  0.51747759  0.47847108  0.33691755    -0.20600
C307        C  0.01990488  0.52452827  0.15006768    -0.20600
C308        C  0.48459452  0.48092241  0.15151953    -0.20600
C309        C  0.99175669  0.59132171  0.40306163    -0.15900
C310        C  0.02261311  0.59335169  0.08519987    -0.15900
C311        C  0.48419119  0.40961929  0.08909655    -0.15900
C312        C  0.51943123  0.40873464  0.40086712    -0.15900
H313        H  0.99299092  0.69257073  0.44666823     0.17000
H314        H  0.00221446  0.69271507  0.04611268     0.17000
H315        H  0.49474192  0.31033456  0.43776262     0.17000
H316        H  0.50569444  0.30900092  0.05454146     0.17000
H317        H  0.98981464  0.54640943  0.30429606     0.15300
H318        H  0.52391660  0.45629573  0.30370149     0.15300
H319        H  0.02662556  0.54706975  0.18295951     0.15300
H320        H  0.47721243  0.45952796  0.18489253     0.15300
H321        H  0.01468414  0.53907641  0.49262447     0.28500
H322        H  0.48597723  0.45717649  0.99447469     0.28500
O323        O  0.49273886  0.25784105  0.16949300    -0.79400
C324        C  0.98223436  0.13855251  0.34172545     0.99900
O325        O  0.96014832  0.17621067  0.33190989    -0.68500
O326        O  0.00217926  0.26061751  0.31782391    -0.72100
Al327      Al  0.96572693  0.23035081  0.27757070     1.49000
C328        C  0.52608016  0.29164411  0.29940796     0.95200
O329        O  0.57262124  0.20009911  0.23904991    -0.78300
O330        O  0.48630484  0.12373341  0.17866707    -0.71900
Al331      Al  0.53129678  0.22732664  0.20587352     1.90100
O332        O  0.55387508  0.11978348  0.23229873    -0.71000
O333        O  0.94450704  0.12246172  0.25150226    -0.70800
O334        O  0.00844989  0.12823640  0.31278286    -0.76500
O335        O  0.92616904  0.20242610  0.24008919    -0.74700
O336        O  0.49936918  0.19384023  0.24410102    -1.10800
O337        O  0.96481919  0.29069863  0.22985861    -0.70000
C338        C  0.97733597  0.29415935  0.18488275     1.00700
C339        C  0.57970823  0.15298690  0.23909052     0.97100
Al340      Al  0.99943470  0.12873243  0.24517038     1.55600
O341        O  0.53595126  0.28784942  0.25323290    -0.74600
C342        C  0.91883165  0.15522347  0.24237248     1.01300
C343        C  0.50949731  0.13455611  0.14566457     0.96100
O344        O  0.53249391  0.17221908  0.15180607    -0.80000
N345        N  0.69403172  0.99915163  0.25825841    -0.34200
N346        N  0.74817965  0.91859934  0.26114876    -0.54800
N347        N  0.80354147  0.99975055  0.26158380    -0.34200
N348        N  0.74924559  0.07999807  0.25905427    -0.54800
C349        C  0.67314029  0.95727795  0.26876769     0.28400
C350        C  0.67383996  0.04029982  0.27280901     0.29400
C351        C  0.82325417  0.95878523  0.27778306     0.29400
C352        C  0.82421250  0.04188513  0.27215186     0.29400
C353        C  0.71840603  0.89016335  0.24683409     0.38000
C354        C  0.77906185  0.89004136  0.25325987     0.38000
C355        C  0.71864764  0.10843153  0.24910198     0.38000
C356        C  0.77942608  0.10837198  0.24632693     0.38000
C357        C  0.63980637  0.97168651  0.29149406    -0.19500
C358        C  0.64031727  0.02424176  0.29428462    -0.19500
C359        C  0.85623728  0.97521956  0.30037060    -0.19500
C360        C  0.85691746  0.02780339  0.29659169    -0.19500
C361        C  0.73018033  0.84204194  0.23106123    -0.20600
C362        C  0.76893696  0.84191137  0.23528946    -0.20600
C363        C  0.72928405  0.15630271  0.23105849    -0.20600
C364        C  0.76812881  0.15621582  0.22915644    -0.20600
C365        C  0.68119660  0.90766120  0.25151609    -0.15900
C366        C  0.68190344  0.09118255  0.25891609    -0.15900
C367        C  0.81646708  0.09143169  0.25405941    -0.15900
C368        C  0.81558741  0.90764447  0.26412738    -0.15900
H369        H  0.61691699  0.94702908  0.30313887     0.17000
H370        H  0.61772393  0.04804520  0.30819429     0.17000
H371        H  0.87841877  0.95155649  0.31560698     0.17000
H372        H  0.87953032  0.05266411  0.30874745     0.17000
H373        H  0.71275846  0.81041302  0.21860206     0.15300
H374        H  0.78742384  0.81021392  0.22644274     0.15300
H375        H  0.71108001  0.18787220  0.22086727     0.15300
H376        H  0.78591256  0.18779127  0.21747620     0.15300
H377        H  0.71714952  0.99986795  0.23442302     0.28500
H378        H  0.78103376  0.99851215  0.23679594     0.28500
O379        O  0.00339036  0.74042667  0.17016037    -0.79400
C380        C  0.51864590  0.86473946  0.34106342     0.99900
O381        O  0.54067839  0.82740361  0.32998756    -0.68500
O382        O  0.49936681  0.74159985  0.31945066    -0.72100
Al383      Al  0.53344260  0.77304877  0.27621954     1.49000
C384        C  0.97436155  0.70740161  0.30193331     0.95200
O385        O  0.92489842  0.79807655  0.24285453    -0.78300
O386        O  0.01036230  0.87087929  0.17485511    -0.71900
Al387      Al  0.96550566  0.77043135  0.20790205     1.90100
O388        O  0.94297832  0.87824885  0.23070848    -0.71000
O389        O  0.55263781  0.88113958  0.24816327    -0.70800
O390        O  0.49123871  0.87437402  0.31410405    -0.76500
O391        O  0.57067745  0.80138814  0.23554878    -0.74700
O392        O  0.99801607  0.80565893  0.24394535    -1.10800
O393        O  0.53341340  0.71340024  0.22817829    -0.70000
C394        C  0.51942511  0.71008991  0.18402754     1.00700
C395        C  0.91756708  0.84523856  0.24100534     0.97100
Al396      Al  0.49733021  0.87387928  0.24618047     1.55600
O397        O  0.96335678  0.70991375  0.25613488    -0.74600
C398        C  0.57808736  0.84841668  0.23759344     1.01300
C399        C  0.98505113  0.86148611  0.14439004     0.96100
O400        O  0.96184701  0.82451753  0.15280750    -0.80000
C401        C  0.98971577  0.97407522  0.44788010     0.04700
C402        C  0.50703169  0.02725385  0.44878515     0.04600
C403        C  0.51045587  0.05315994  0.49414368    -0.15900
C404        C  0.48914689  0.02812219  0.03865896     0.04700
C405        C  0.99967493  0.97168491  0.04010918     0.04600
C406        C  0.98637843  0.94688791  0.49259627    -0.15900
H407        H  0.98446836  0.90512306  0.49144096     0.06700
H408        H  0.51049255  0.09502000  0.49430668     0.06700
C409        C  0.98211885  0.89976090  0.10564276    -0.10900
C410        C  0.98933143  0.93773498  0.08085318    -0.12400
C411        C  0.52483193  0.90260376  0.37947342    -0.10900
C412        C  0.51992988  0.93997791  0.40594010    -0.12400
C413        C  0.61680168  0.86300891  0.23394517    -0.10900
C414        C  0.64894694  0.87662078  0.23886255    -0.12400
C415        C  0.87951682  0.86058223  0.24915182    -0.10900
C416        C  0.84807148  0.87574174  0.25621732    -0.12400
C417        C  0.50096929  0.06145247  0.07925392    -0.10900
C418        C  0.50972241  0.09807884  0.10507450    -0.12400
C419        C  0.97690986  0.10107579  0.38096903    -0.10900
C420        C  0.98091814  0.06357936  0.40766147    -0.12400
C421        C  0.84866608  0.12358517  0.24378881    -0.10900
C422        C  0.88025987  0.13967549  0.23963587    -0.12400
C423        C  0.64967393  0.12343572  0.25108088    -0.10900
C424        C  0.61798047  0.13805950  0.24532827    -0.12400
C425        C  0.97335196  0.33967916  0.15351563    -0.10900
C426        C  0.97960514  0.37282409  0.12214102    -0.12400
C427        C  0.53246402  0.33700841  0.33022953    -0.10900
C428        C  0.52835232  0.37028811  0.36205516    -0.12400
C429        C  0.52127017  0.63316142  0.11910315    -0.10900
C430        C  0.52544599  0.66647704  0.15083659    -0.12400
C431        C  0.97168698  0.66163538  0.33352236    -0.10900
C432        C  0.97902688  0.62920020  0.36531968    -0.12400
N433        N  0.01205827  0.57938069  0.99395249    -0.34200
N434        N  0.50041492  0.49711436  0.91762558    -0.54800
N435        N  0.51044131  0.42128703  0.49235140    -0.34200
N436        N  0.50826296  0.50035747  0.57055898    -0.54800
C437        C  0.99919734  0.60802408  0.95489356     0.29400
C438        C  0.01464398  0.60875592  0.53382544     0.29400
C439        C  0.50802870  0.38943794  0.95974238     0.29400
C440        C  0.49744846  0.39239337  0.53121118     0.29400
C441        C  0.00272573  0.54059379  0.88746520     0.38000
C442        C  0.50420890  0.45401298  0.88955464     0.38000
C443        C  0.01397258  0.54083212  0.60121712     0.38000
C444        C  0.50519993  0.45785197  0.59965614     0.38000
C445        C  0.99397279  0.65812215  0.97160064    -0.19500
C446        C  0.00931395  0.65949571  0.51928706    -0.19500
C447        C  0.51348301  0.34016731  0.97853925    -0.19500
C448        C  0.48958512  0.34330315  0.51343987    -0.19500
C449        C  0.00887268  0.52691666  0.83789643    -0.20600
C450        C  0.49857951  0.46599415  0.83946378    -0.20600
C451        C  0.00954461  0.52669220  0.65104449    -0.20600
C452        C  0.51361141  0.47045038  0.64886982    -0.20600
C453        C  0.99373770  0.59095477  0.90424703    -0.15900
C454        C  0.02094796  0.59209293  0.58440112    -0.15900
C455        C  0.49466588  0.40800786  0.58260675    -0.15900
C456        C  0.51210920  0.40384725  0.90813378    -0.15900
H457        H  0.98440714  0.69061883  0.94975760     0.17000
H458        H  0.01068347  0.69328657  0.54290575     0.17000
H459        H  0.52261247  0.30659825  0.95792380     0.17000
H460        H  0.47923347  0.31089702  0.53484867     0.17000
H461        H  0.00771017  0.55166162  0.80532519     0.15300
H462        H  0.49982652  0.44010666  0.80775378     0.15300
H463        H  0.01244280  0.55097103  0.68376014     0.15300
H464        H  0.51349878  0.44505640  0.68100272     0.15300
H465        H  0.02162988  0.54191250  0.99213644     0.28500
H466        H  0.52202876  0.45775431  0.49460924     0.28500
O467        O  0.50266867  0.25832870  0.66825731    -0.79400
C468        C  0.98386803  0.13479767  0.84308381     0.99900
O469        O  0.96086580  0.17152810  0.83359023    -0.68500
O470        O  0.00187402  0.25678281  0.81828487    -0.72100
Al471      Al  0.96532211  0.22563114  0.77882798     1.49000
C472        C  0.52076013  0.28849406  0.80449768     0.95200
O473        O  0.57290231  0.19744213  0.75257296    -0.78300
O474        O  0.49395376  0.12486079  0.67293059    -0.71900
Al475      Al  0.53607537  0.22621983  0.71186064     1.90100
O476        O  0.55485345  0.11771347  0.73930346    -0.71000
O477        O  0.94484955  0.11717910  0.75495465    -0.70800
O478        O  0.01014405  0.12574169  0.81390624    -0.76500
O479        O  0.92580644  0.19665620  0.74207573    -0.74700
O480        O  0.49985943  0.19230053  0.74233493    -1.10800
O481        O  0.96355896  0.28619023  0.73099044    -0.70000
C482        C  0.97578123  0.28970790  0.68584501     1.00700
C483        C  0.58004948  0.15033665  0.75118944     0.97100
Al484      Al  0.99972447  0.12429750  0.74680297     1.55600
O485        O  0.53563755  0.28538474  0.76078254    -0.74600
C486        C  0.91880202  0.14944042  0.74577409     1.01300
C487        C  0.52149321  0.13487182  0.64621555     0.96100
O488        O  0.54350892  0.17225528  0.65769633    -0.80000
N489        N  0.69496589  0.99906631  0.78410464    -0.34200
N490        N  0.74850854  0.91671780  0.78254432    -0.54800
N491        N  0.80365362  0.99724864  0.77862158    -0.34200
N492        N  0.74968779  0.07952391  0.77961480    -0.54800
C493        C  0.67413848  0.95744101  0.79535100     0.28400
C494        C  0.67479223  0.04060529  0.79747185     0.29400
C495        C  0.82427261  0.95602324  0.79198451     0.29400
C496        C  0.82488698  0.03926335  0.78714992     0.29400
C497        C  0.71788294  0.89074655  0.76714262     0.38000
C498        C  0.77866404  0.88900251  0.76873425     0.38000
C499        C  0.71883686  0.10667377  0.76747549     0.38000
C500        C  0.77954915  0.10542335  0.76160410     0.38000
C501        C  0.64091422  0.97239379  0.81810910    -0.19500
C502        C  0.64138360  0.02511788  0.81964437    -0.19500
C503        C  0.85852820  0.97216211  0.81110291    -0.19500
C504        C  0.85895540  0.02485231  0.80791031    -0.19500
C505        C  0.72841242  0.84496270  0.74461639    -0.20600
C506        C  0.76726218  0.84372753  0.74584912    -0.20600
C507        C  0.72907498  0.15148971  0.74282762    -0.20600
C508        C  0.76786217  0.15068448  0.73906779    -0.20600
C509        C  0.68112510  0.90851607  0.77557690    -0.15900
C510        C  0.68220998  0.09041219  0.77982578    -0.15900
C511        C  0.81674231  0.08824853  0.76788036    -0.15900
C512        C  0.81577893  0.90526450  0.77774784    -0.15900
H513        H  0.61770874  0.94802714  0.82922462     0.17000
H514        H  0.61852395  0.04930895  0.83207563     0.17000
H515        H  0.88171640  0.94832280  0.82304497     0.17000
H516        H  0.88246023  0.04949233  0.81712711     0.17000
H517        H  0.71013503  0.81581639  0.72901098     0.15300
H518        H  0.78498962  0.81359683  0.73103704     0.15300
H519        H  0.71062740  0.18117747  0.72878546     0.15300
H520        H  0.78533852  0.17973715  0.72173087     0.15300
H521        H  0.71738101  0.99918146  0.75914378     0.28500
H522        H  0.78000582  0.99636474  0.75583422     0.28500
O523        O  0.00245590  0.74046111  0.67006331    -0.79400
C524        C  0.50711599  0.86342043  0.84353350     0.99900
O525        O  0.53136756  0.82748749  0.83675152    -0.68500
O526        O  0.49387701  0.74035986  0.81783320    -0.72100
Al527      Al  0.53165491  0.77303035  0.78181322     1.49000
C528        C  0.97662503  0.70515290  0.80267805     0.95200
O529        O  0.92443840  0.79513232  0.74685674    -0.78300
O530        O  0.00567697  0.87645109  0.68003934    -0.71900
Al531      Al  0.96509358  0.76946142  0.71010718     1.90100
O532        O  0.94158369  0.87609037  0.74009748    -0.71000
O533        O  0.55141423  0.88203430  0.75844422    -0.70800
O534        O  0.48332121  0.87263779  0.81091749    -0.76500
O535        O  0.57218702  0.80305221  0.74879580    -0.74700
O536        O  0.99811823  0.80411870  0.74551859    -1.10800
O537        O  0.53786677  0.71298861  0.73389649    -0.70000
C538        C  0.52830439  0.70924276  0.68760015     1.00700
C539        C  0.91661438  0.84211532  0.74838795     0.97100
Al540      Al  0.49732550  0.87254604  0.74521777     1.55600
O541        O  0.96426381  0.70853678  0.75753427    -0.74600
C542        C  0.57825147  0.85039446  0.75175938     1.01300
C543        C  0.98143445  0.86396373  0.64891067     0.96100
O544        O  0.96019243  0.82470345  0.65673200    -0.80000
C545        C  0.00326139  0.97273312  0.94930083     0.04700
C546        C  0.48388821  0.02591452  0.94781351     0.04600
C547        C  0.48700970  0.05311763  0.99256573    -0.15900
C548        C  0.51304649  0.02683508  0.53939435     0.04700
C549        C  0.98793568  0.97149137  0.53882323     0.04600
C550        C  0.00348127  0.94628973  0.99459481    -0.15900
H551        H  0.00557721  0.90452296  0.99436218     0.06700
H552        H  0.48864611  0.09489136  0.99137395     0.06700
C553        C  0.97769878  0.90026303  0.60836232    -0.10900
C554        C  0.98211547  0.93723154  0.58104895    -0.12400
C555        C  0.50686614  0.90026907  0.88384108    -0.10900
C556        C  0.49803005  0.93706814  0.90933643    -0.12400
C557        C  0.61657506  0.86662086  0.75279597    -0.10900
C558        C  0.64840978  0.87990158  0.76047903    -0.12400
C559        C  0.87856762  0.85664720  0.75839459    -0.10900
C560        C  0.84754729  0.87269948  0.76705752    -0.12400
C561        C  0.52231815  0.05974346  0.58138627    -0.10900
C562        C  0.52776153  0.09720854  0.60762558    -0.12400
C563        C  0.97965335  0.09671912  0.88184370    -0.10900
C564        C  0.98573144  0.05941685  0.90798149    -0.12400
C565        C  0.84870864  0.11867773  0.75272409    -0.10900
C566        C  0.88023584  0.13374248  0.74542195    -0.12400
C567        C  0.64955309  0.12099756  0.76872648    -0.10900
C568        C  0.61793311  0.13500075  0.76070557    -0.12400
C569        C  0.97322959  0.33604965  0.65509028    -0.10900
C570        C  0.98016063  0.36961214  0.62424451    -0.12400
C571        C  0.52664737  0.33144779  0.83869399    -0.10900
C572        C  0.52228937  0.36423605  0.87096347    -0.12400
C573        C  0.53104655  0.63078001  0.62446079    -0.10900
C574        C  0.53503514  0.66408027  0.65642589    -0.12400
C575        C  0.97299264  0.65977576  0.83422055    -0.10900
C576        C  0.98033915  0.62776768  0.86623246    -0.12400
loop_ 
_geom_bond_atom_site_label_1 
_geom_bond_atom_site_label_2 
_geom_bond_distance 
_geom_bond_site_symmetry_2 
_ccdc_geom_bond_type 
N1           H33   1.035       .  S
N1            C5   1.362       .  A
N1          C150   1.360       .  A
N2           C10   1.350       .  A
N2          C297   1.352   1_455  A
N3           H34   1.035       .  S
N3            C8   1.361   1_456  A
N3          C151   1.360       .  A
N4           C12   1.355       .  A
N4          C299   1.356       .  A
C5           C13   1.389       .  A
C5           C21   1.436       .  A
C6          N145   1.361   1_554  A
C6           C22   1.435       .  A
C6           C14   1.390       .  A
C7          N147   1.363       .  A
C7           C15   1.390       .  A
C7           C24   1.437       .  A
C8           C23   1.434       .  A
C8           C16   1.390       .  A
C9          N290   1.354       .  A
C9           C21   1.422       .  A
C9           C17   1.388       .  A
C10          C24   1.420       .  A
C10          C18   1.388       .  A
C11         N292   1.354       .  A
C11          C19   1.388       .  A
C11          C22   1.423       .  A
C12          C20   1.387       .  A
C12          C23   1.423   1_455  A
C13         C158   1.386       .  A
C13          H25   1.082       .  S
C14         C157   1.386   1_554  A
C14          H26   1.082       .  S
C15         C160   1.386       .  A
C15          H27   1.082       .  S
C16         C159   1.386   1_554  A
C16          H28   1.082       .  S
C17         C306   1.378       .  A
C17          H29   1.083       .  S
C18         C305   1.379   1_455  A
C18          H30   1.082       .  S
C19         C308   1.378       .  A
C19          H31   1.083       .  S
C20         C307   1.377       .  A
C20          H32   1.082       .  S
C21         C144   1.477       .  S
C22         C429   1.474       .  S
C23         C426   1.476       .  S
C24         C140   1.474       .  S
O35         Al43   1.867   1_655  S
O35         C338   1.253       .  A
C36         C131   1.438       .  S
C36          O46   1.240       .  A
C36          O37   1.286       .  A
O37         Al39   2.033       .  S
O38         Al39   1.864       .  S
O38         C328   1.253       .  A
Al39         O47   1.873       .  S
Al39         O49   2.025       .  S
Al39        O336   1.759       .  S
C40         C139   1.453       .  S
C40          O53   1.286       .  A
C40         O326   1.253       .  A
O41         Al43   1.859       .  S
O41          C51   1.250       .  A
O42        Al340   1.823       .  S
O42          C55   1.241   1_655  A
Al43         O56   2.032       .  S
Al43         O53   2.022       .  S
Al43         O48   1.760   1_455  S
O44        Al340   1.971   1_455  S
O44          C51   1.274       .  A
O45         Al52   1.975       .  S
O45          C54   1.275       .  A
O46         Al52   1.823       .  S
O47          C54   1.255       .  A
O48        Al327   1.761       .  S
O48        Al340   1.750       .  S
O49          C50   1.285       .  A
C50         C137   1.456       .  S
C50         O323   1.253       .  A
C51         C136   1.431       .  S
Al52        O330   1.820       .  S
Al52        O332   1.971       .  S
Al52        O336   1.749       .  S
C54         C134   1.435       .  S
C55         C130   1.441       .  S
C55          O56   1.286       .  A
N57          H89   1.041       .  S
N57          C62   1.348       .  A
N57          C61   1.347   1_545  A
N58          C65   1.349       .  A
N58          C66   1.348       .  A
N59          H90   1.040   1_545  S
N59          C64   1.348       .  A
N59          C63   1.349   1_545  A
N60          C67   1.347       .  A
N60          C68   1.348       .  A
C61          C69   1.387       .  A
C61          C77   1.401       .  A
C62          C78   1.404       .  A
C62          C70   1.389       .  A
C63          C71   1.389       .  A
C63          C80   1.405       .  A
C64          C79   1.403       .  A
C64          C72   1.387       .  A
C65          C77   1.411       .  A
C65          C73   1.386       .  A
C66          C80   1.413       .  A
C66          C74   1.387       .  A
C67          C75   1.387       .  A
C67          C78   1.411       .  A
C68          C76   1.386       .  A
C68          C79   1.410       .  A
C69          C70   1.370   1_565  A
C69          H81   1.083       .  S
C70          H82   1.083       .  S
C71          C72   1.372   1_565  A
C71          H83   1.083       .  S
C72          H84   1.083       .  S
C73          C74   1.387       .  A
C73          H85   1.082       .  S
C74          H86   1.082       .  S
C75          C76   1.387       .  A
C75          H87   1.082       .  S
C76          H88   1.082       .  S
C77         C126   1.446       .  S
C78         C135   1.441       .  S
C79         C133   1.446       .  S
C80         C128   1.447       .  S
O91         Al99   1.870       .  S
O91         C394   1.255       .  A
C92         C123   1.437       .  S
C92         O102   1.240   1_455  A
C92          O93   1.287       .  A
O93         Al95   2.033       .  S
O94         Al95   1.864   1_655  S
O94         C384   1.250       .  A
Al95        O103   1.868       .  S
Al95        O105   2.033       .  S
Al95        O392   1.751   1_455  S
C96         C143   1.457       .  S
C96         O109   1.286       .  A
C96         O382   1.253       .  A
O97         Al99   1.872       .  S
O97         C107   1.254       .  A
O98        Al396   1.826       .  S
O98         C111   1.242       .  A
Al99        O112   2.034       .  S
Al99        O109   2.025       .  S
Al99        O104   1.759       .  S
O100       Al396   1.974       .  S
O100        C107   1.275       .  A
O101       Al108   1.972   1_455  S
O101        C110   1.273       .  A
O102       Al108   1.815       .  S
O103        C110   1.251       .  A
O104       Al383   1.761       .  S
O104       Al396   1.750       .  S
O105        C106   1.289       .  A
C106        C142   1.458       .  S
C106        O379   1.253       .  A
C107        C127   1.437       .  S
Al108       O386   1.826   1_655  S
Al108       O388   1.978       .  S
Al108       O392   1.747       .  S
C110        C125   1.435       .  S
C111        C121   1.444       .  S
C111        O112   1.287       .  A
C113        C118   1.391       .  A
C113        C402   1.427   1_565  A
C113        C412   1.447       .  S
C114        C115   1.391       .  A
C114        C401   1.426   1_545  A
C114        C420   1.452       .  S
C115        C260   1.394       .  A
C115        H120   1.088       .  S
C116        C259   1.392   1_454  A
C116        C405   1.426   1_445  A
C116        C129   1.450       .  S
C117        C404   1.431   1_565  A
C117        C262   1.393   1_554  A
C117        C122   1.452       .  S
C118        C261   1.391       .  A
C118        H119   1.088       .  S
C121        C122   1.217       .  T
C123        C124   1.214       .  T
C124        C401   1.445   1_455  S
C125        C126   1.207       .  T
C127        C128   1.207       .  T
C129        C130   1.216       .  T
C131        C132   1.214       .  T
C132        C402   1.447       .  S
C133        C134   1.207       .  T
C135        C136   1.204       .  T
C137        C138   1.222       .  T
C138        C311   1.475       .  S
C139        C140   1.221       .  T
C141        C310   1.478       .  S
C141        C142   1.223       .  T
C143        C144   1.222       .  T
N145        H177   1.034       .  S
N145        C149   1.360       .  A
N146        C441   1.353       .  A
N146        C154   1.355       .  A
N147        H178   1.035   1_455  S
N147        C152   1.359   1_455  A
N148        C443   1.356       .  A
N148        C156   1.357   1_455  A
C149        C157   1.386       .  A
C149        C165   1.431       .  A
C150        C166   1.432       .  A
C150        C158   1.387       .  A
C151        C159   1.386   1_455  A
C151        C168   1.430       .  A
C152        C167   1.431       .  A
C152        C160   1.387   1_655  A
C153        N434   1.357       .  A
C153        C165   1.423       .  A
C153        C161   1.386       .  A
C154        C168   1.420       .  A
C154        C162   1.387       .  A
C155        N436   1.356       .  A
C155        C163   1.388       .  A
C155        C166   1.424       .  A
C156        C164   1.387       .  A
C156        C167   1.425       .  A
C157        H169   1.082       .  S
C158        H170   1.082       .  S
C159        H171   1.082       .  S
C160        H172   1.083       .  S
C161        C450   1.377       .  A
C161        H173   1.082       .  S
C162        C449   1.377       .  A
C162        H174   1.082       .  S
C163        C452   1.379       .  A
C163        H175   1.082       .  S
C164        C451   1.378   1_655  A
C164        H176   1.082       .  S
C165        C288   1.480       .  S
C166        C573   1.478       .  S
C167        C570   1.479       .  S
C168        C284   1.476       .  S
O179       Al187   1.867   1_655  S
O179        C482   1.252       .  A
C180        C275   1.443       .  S
C180        O190   1.244       .  A
C180        O181   1.287       .  A
O181       Al183   2.035       .  S
O182       Al183   1.866       .  S
O182        C472   1.254       .  A
Al183       O191   1.877       .  S
Al183       O193   2.024       .  S
Al183       O480   1.758       .  S
C184        C283   1.457       .  S
C184        O470   1.254       .  A
C184        O197   1.288       .  A
O185       Al187   1.862       .  S
O185        C195   1.251       .  A
O186       Al484   1.816       .  S
O186        C199   1.241   1_655  A
Al187       O200   2.030       .  S
Al187       O197   2.029       .  S
Al187       O192   1.755   1_455  S
O188       Al484   1.971   1_455  S
O188        C195   1.273       .  A
O189       Al196   1.967       .  S
O189        C198   1.273       .  A
O190       Al196   1.829       .  S
O191        C198   1.254       .  A
O192       Al471   1.763       .  S
O192       Al484   1.750       .  S
O193        C194   1.285       .  A
C194        C281   1.460       .  S
C194        O467   1.253       .  A
C195        C280   1.433       .  S
Al196       O474   1.826       .  S
Al196       O476   1.977       .  S
Al196       O480   1.753       .  S
C198        C278   1.434       .  S
C199        C274   1.437       .  S
C199        O200   1.286       .  A
N201        H233   1.041       .  S
N201        C206   1.347   1_565  A
N201        C205   1.346       .  A
N202        C209   1.348       .  A
N202        C210   1.347       .  A
N203        H234   1.041       .  S
N203        C208   1.348   1_565  A
N203        C207   1.349       .  A
N204        C211   1.347       .  A
N204        C212   1.347       .  A
C205        C213   1.387       .  A
C205        C221   1.400       .  A
C206        C222   1.403       .  A
C206        C214   1.389       .  A
C207        C215   1.389       .  A
C207        C224   1.406       .  A
C208        C223   1.403       .  A
C208        C216   1.387       .  A
C209        C221   1.410       .  A
C209        C217   1.386       .  A
C210        C224   1.411       .  A
C210        C218   1.387       .  A
C211        C219   1.387       .  A
C211        C222   1.411       .  A
C212        C220   1.386       .  A
C212        C223   1.409       .  A
C213        C214   1.371   1_565  A
C213        H225   1.083       .  S
C214        H226   1.083       .  S
C215        C216   1.372   1_565  A
C215        H227   1.082       .  S
C216        H228   1.083       .  S
C217        C218   1.388       .  A
C217        H229   1.082       .  S
C218        H230   1.082       .  S
C219        C220   1.387       .  A
C219        H231   1.082       .  S
C220        H232   1.082       .  S
C221        C270   1.443       .  S
C222        C279   1.442       .  S
C223        C277   1.444       .  S
C224        C272   1.444       .  S
O235       Al243   1.865       .  S
O235        C538   1.252       .  A
C236        C267   1.440       .  S
C236        O246   1.240   1_455  A
C236        O237   1.284       .  A
O237       Al239   2.031       .  S
O238       Al239   1.860   1_655  S
O238        C528   1.252       .  A
Al239       O247   1.864       .  S
Al239       O249   2.018       .  S
Al239       O536   1.761   1_455  S
C240        C287   1.461       .  S
C240        O526   1.252       .  A
C240        O253   1.289       .  A
O241       Al243   1.870       .  S
O241        C251   1.254       .  A
O242       Al540   1.818       .  S
O242        C255   1.239       .  A
Al243       O256   2.038       .  S
Al243       O253   2.039       .  S
Al243       O248   1.756       .  S
O244       Al540   1.971       .  S
O244        C251   1.275       .  A
O245       Al252   1.980   1_455  S
O245        C254   1.276       .  A
O246       Al252   1.832       .  S
O247        C254   1.253       .  A
O248       Al527   1.757       .  S
O248       Al540   1.749       .  S
O249        C250   1.284       .  A
C250        C286   1.456       .  S
C250        O523   1.254       .  A
C251        C271   1.435       .  S
Al252       O530   1.825   1_655  S
Al252       O532   1.964       .  S
Al252       O536   1.750       .  S
C254        C269   1.432       .  S
C255        C265   1.440       .  S
C255        O256   1.288       .  A
C257        C546   1.427   1_565  A
C257        C262   1.392       .  A
C257        C556   1.450       .  S
C258        C545   1.429   1_645  A
C258        C259   1.393       .  A
C258        C564   1.448       .  S
C259        H264   1.088       .  S
C260        C549   1.429   1_545  A
C260        C273   1.446   1_655  S
C261        C548   1.429   1_565  A
C261        C266   1.449       .  S
C262        H263   1.088       .  S
C265        C266   1.216       .  T
C267        C268   1.215       .  T
C268        C545   1.446       .  S
C269        C270   1.205       .  T
C271        C272   1.206       .  T
C273        C274   1.214       .  T
C275        C276   1.216       .  T
C276        C546   1.451       .  S
C277        C278   1.206       .  T
C279        C280   1.205       .  T
C281        C282   1.224       .  T
C282        C455   1.478       .  S
C283        C284   1.223       .  T
C285        C454   1.476       .  S
C285        C286   1.221       .  T
C287        C288   1.225       .  T
N289        H321   1.031       .  S
N289        C438   1.359       .  A
N289        C293   1.365   1_455  A
N290        C298   1.355       .  A
N291        H322   1.033       .  S
N291        C296   1.359   1_556  A
N291        C439   1.361       .  A
N292        C300   1.356       .  A
C293        C301   1.388       .  A
C293        C309   1.440       .  A
C294        N433   1.360   1_554  A
C294        C310   1.433       .  A
C294        C302   1.387       .  A
C295        N435   1.359       .  A
C295        C303   1.386       .  A
C295        C312   1.429       .  A
C296        C311   1.430       .  A
C296        C304   1.387       .  A
C297        C309   1.422       .  A
C297        C305   1.388       .  A
C298        C312   1.422       .  A
C298        C306   1.387       .  A
C299        C307   1.388       .  A
C299        C310   1.423       .  A
C300        C308   1.387       .  A
C300        C311   1.423       .  A
C301        C446   1.386   1_655  A
C301        H313   1.082       .  S
C302        C445   1.387   1_454  A
C302        H314   1.082       .  S
C303        C448   1.386       .  A
C303        H315   1.082       .  S
C304        C447   1.386   1_554  A
C304        H316   1.083       .  S
C305        H317   1.082       .  S
C306        H318   1.082       .  S
C307        H319   1.082       .  S
C308        H320   1.082       .  S
C309        C432   1.481       .  S
C312        C428   1.475       .  S
O323       Al331   1.863       .  S
C324        C419   1.443       .  S
C324        O334   1.242   1_655  A
C324        O325   1.285       .  A
O325       Al327   2.031       .  S
O326       Al327   1.861   1_455  S
Al327       O335   1.875       .  S
Al327       O337   2.021       .  S
C328        C427   1.456       .  S
C328        O341   1.286       .  A
O329       Al331   1.861       .  S
O329        C339   1.251       .  A
O330        C343   1.240       .  A
Al331       O344   2.034       .  S
Al331       O341   2.025       .  S
Al331       O336   1.758       .  S
O332        C339   1.274       .  A
O333       Al340   1.973       .  S
O333        C342   1.275       .  A
O334       Al340   1.834   1_455  S
O335        C342   1.256       .  A
O337        C338   1.284       .  A
C338        C425   1.457       .  S
C339        C424   1.430       .  S
C342        C422   1.435       .  S
C343        C418   1.440       .  S
C343        O344   1.287       .  A
N345        H377   1.041       .  S
N345        C350   1.348   1_565  A
N345        C349   1.348       .  A
N346        C353   1.348       .  A
N346        C354   1.346       .  A
N347        H378   1.041       .  S
N347        C352   1.349   1_565  A
N347        C351   1.349       .  A
N348        C355   1.346       .  A
N348        C356   1.347       .  A
C349        C357   1.387       .  A
C349        C365   1.400       .  A
C350        C366   1.403       .  A
C350        C358   1.389       .  A
C351        C359   1.389       .  A
C351        C368   1.405       .  A
C352        C367   1.404       .  A
C352        C360   1.387       .  A
C353        C365   1.409       .  A
C353        C361   1.386       .  A
C354        C368   1.410       .  A
C354        C362   1.387       .  A
C355        C363   1.387       .  A
C355        C366   1.409       .  A
C356        C364   1.386       .  A
C356        C367   1.409       .  A
C357        C358   1.368   1_565  A
C357        H369   1.083       .  S
C358        H370   1.082       .  S
C359        C360   1.371   1_565  A
C359        H371   1.083       .  S
C360        H372   1.083       .  S
C361        C362   1.387       .  A
C361        H373   1.082       .  S
C362        H374   1.082       .  S
C363        C364   1.386       .  A
C363        H375   1.082       .  S
C364        H376   1.082       .  S
C365        C414   1.444       .  S
C366        C423   1.439       .  S
C367        C421   1.445       .  S
C368        C416   1.441       .  S
O379       Al387   1.858   1_455  S
C380        C411   1.438       .  S
C380        O390   1.240       .  A
C380        O381   1.284       .  A
O381       Al383   2.031       .  S
O382       Al383   1.863       .  S
Al383       O391   1.866       .  S
Al383       O393   2.012       .  S
C384        C431   1.461       .  S
C384        O397   1.286       .  A
O385       Al387   1.867       .  S
O385        C395   1.255       .  A
O386        C399   1.239   1_455  A
Al387       O400   2.039       .  S
Al387       O397   2.034       .  S
Al387       O392   1.763       .  S
O388        C395   1.277       .  A
O389       Al396   1.982       .  S
O389        C398   1.277       .  A
O390       Al396   1.826       .  S
O391        C398   1.252       .  A
O393        C394   1.283       .  A
C394        C430   1.455       .  S
C395        C415   1.432       .  S
C398        C413   1.435       .  S
C399        C409   1.439       .  S
C399        O400   1.287       .  A
C401        C406   1.392       .  A
C402        C403   1.391       .  A
C403        C548   1.392       .  A
C403        H408   1.088       .  S
C404        C547   1.394   1_554  A
C404        C417   1.450       .  S
C405        C550   1.390   1_654  A
C405        C410   1.448       .  S
C406        C549   1.391       .  A
C406        H407   1.088       .  S
C409        C410   1.216       .  T
C411        C412   1.214       .  T
C413        C414   1.206       .  T
C415        C416   1.204       .  T
C417        C418   1.216       .  T
C419        C420   1.216       .  T
C421        C422   1.206       .  T
C423        C424   1.203       .  T
C425        C426   1.222       .  T
C427        C428   1.222       .  T
C429        C430   1.221       .  T
C431        C432   1.225       .  T
N433        H465   1.034       .  S
N433        C437   1.362   1_455  A
N434        C442   1.355       .  A
N435        H466   1.035       .  S
N435        C440   1.361       .  A
N436        C444   1.355       .  A
C437        C445   1.389       .  A
C437        C453   1.436       .  A
C438        C454   1.436       .  A
C438        C446   1.388       .  A
C439        C447   1.390       .  A
C439        C456   1.435       .  A
C440        C455   1.434       .  A
C440        C448   1.390       .  A
C441        C453   1.421   1_455  A
C441        C449   1.388       .  A
C442        C456   1.424       .  A
C442        C450   1.388       .  A
C443        C451   1.389       .  A
C443        C454   1.428       .  A
C444        C452   1.387       .  A
C444        C455   1.423       .  A
C445        H457   1.082       .  S
C446        H458   1.082       .  S
C447        H459   1.082       .  S
C448        H460   1.082       .  S
C449        H461   1.083       .  S
C450        H462   1.082       .  S
C451        H463   1.083       .  S
C452        H464   1.082       .  S
C453        C576   1.475       .  S
C456        C572   1.476       .  S
O467       Al475   1.865       .  S
C468        C563   1.440       .  S
C468        O478   1.241   1_655  A
C468        O469   1.285       .  A
O469       Al471   2.035       .  S
O470       Al471   1.861   1_455  S
Al471       O479   1.875       .  S
Al471       O481   2.028       .  S
C472        C571   1.457       .  S
C472        O485   1.284       .  A
O473       Al475   1.863       .  S
O473        C483   1.252       .  A
O474        C487   1.241       .  A
Al475       O488   2.032       .  S
Al475       O485   2.018       .  S
Al475       O480   1.761       .  S
O476        C483   1.275       .  A
O477       Al484   1.977       .  S
O477        C486   1.277       .  A
O478       Al484   1.830   1_455  S
O479        C486   1.256       .  A
O481        C482   1.285       .  A
C482        C569   1.461       .  S
C483        C568   1.432       .  S
C486        C566   1.434       .  S
C487        C562   1.439       .  S
C487        O488   1.286       .  A
N489        H521   1.040       .  S
N489        C494   1.347   1_565  A
N489        C493   1.345       .  A
N490        C497   1.348       .  A
N490        C498   1.347       .  A
N491        H522   1.040       .  S
N491        C496   1.347   1_565  A
N491        C495   1.349       .  A
N492        C499   1.348       .  A
N492        C500   1.347       .  A
C493        C501   1.388       .  A
C493        C509   1.400       .  A
C494        C510   1.403       .  A
C494        C502   1.389       .  A
C495        C503   1.389       .  A
C495        C512   1.406       .  A
C496        C511   1.404       .  A
C496        C504   1.388       .  A
C497        C509   1.409       .  A
C497        C505   1.386       .  A
C498        C512   1.410       .  A
C498        C506   1.387       .  A
C499        C507   1.386       .  A
C499        C510   1.411       .  A
C500        C508   1.386       .  A
C500        C511   1.410       .  A
C501        C502   1.371   1_565  A
C501        H513   1.083       .  S
C502        H514   1.083       .  S
C503        C504   1.372   1_565  A
C503        H515   1.083       .  S
C504        H516   1.083       .  S
C505        C506   1.386       .  A
C505        H517   1.082       .  S
C506        H518   1.082       .  S
C507        C508   1.387       .  A
C507        H519   1.082       .  S
C508        H520   1.082       .  S
C509        C558   1.440       .  S
C510        C567   1.442       .  S
C511        C565   1.444       .  S
C512        C560   1.444       .  S
O523       Al531   1.868   1_455  S
C524        C555   1.441       .  S
C524        O534   1.240       .  A
C524        O525   1.287       .  A
O525       Al527   2.039       .  S
O526       Al527   1.859       .  S
Al527       O535   1.863       .  S
Al527       O537   2.030       .  S
C528        C575   1.455       .  S
C528        O541   1.287       .  A
O529       Al531   1.874       .  S
O529        C539   1.254       .  A
O530        C543   1.242   1_455  A
Al531       O544   2.031       .  S
Al531       O541   2.028       .  S
Al531       O536   1.758       .  S
O532        C539   1.272       .  A
O533       Al540   1.976       .  S
O533        C542   1.276       .  A
O534       Al540   1.823       .  S
O535        C542   1.252       .  A
O537        C538   1.286       .  A
C538        C574   1.459       .  S
C539        C559   1.434       .  S
C542        C557   1.430       .  S
C543        C553   1.443       .  S
C543        O544   1.287       .  A
C545        C550   1.391       .  A
C546        C547   1.393       .  A
C547        H552   1.088       .  S
C548        C561   1.448       .  S
C549        C554   1.451       .  S
C550        H551   1.089       .  S
C553        C554   1.216       .  T
C555        C556   1.216       .  T
C557        C558   1.204       .  T
C559        C560   1.205       .  T
C561        C562   1.215       .  T
C563        C564   1.215       .  T
C565        C566   1.206       .  T
C567        C568   1.205       .  T
C569        C570   1.225       .  T
C571        C572   1.222       .  T
C573        C574   1.224       .  T
C575        C576   1.222       .  T
