geometry optimzed in LAMMPS
_audit_creation_date              2020-12-01 
_audit_creation_method            'lammps2cif' 
_symmetry_space_group_name_H-M    'P1' 
_symmetry_Int_Tables_number       1 
_symmetry_cell_setting            triclinic 
loop_ 
_symmetry_equiv_pos_as_xyz 
  x,y,z 
_cell_length_a                    29.16667884 
_cell_length_b                    28.770074137108438 
_cell_length_c                    29.097818638129066 
_cell_angle_alpha                 89.96062107977565 
_cell_angle_beta                  89.85778916128275 
_cell_angle_gamma                 90.0762953001769 
loop_ 
_atom_site_label 
_atom_site_type_symbol 
_atom_site_fract_x 
_atom_site_fract_y 
_atom_site_fract_z 
_atom_site_charge 
O1          O  0.41760396  0.41415037  0.91166806    -0.75600
O2          O  0.46426974  0.45073039  0.85985159    -0.54500
C3          C  0.43132738  0.42303113  0.87048307     0.78100
O4          O  0.42031293  0.59776628  0.06571260    -0.60200
O5          O  0.45993194  0.55672134  0.11986463    -0.53300
C6          C  0.43072278  0.58772515  0.10752417     0.70100
O7          O  0.42060525  0.59216517  0.91026784    -0.74800
O8          O  0.46224582  0.54975799  0.85882734    -0.55400
C9          C  0.43123582  0.57968207  0.86906944     0.76100
O10         O  0.41766137  0.41045121  0.06672809    -0.59900
O11         O  0.45609832  0.45355124  0.12008697    -0.53100
C12         C  0.42669584  0.42254334  0.10831541     0.72700
Zr13       Zr  0.44189870  0.43354112  0.98967850     2.54700
O14         O  0.35849127  0.43020850  0.98887685    -0.80500
O15         O  0.44832468  0.34915284  0.98971598    -0.93900
Zr16       Zr  0.44315659  0.57236067  0.98880818     2.64700
O17         O  0.35964092  0.57026105  0.98774293    -0.98900
O18         O  0.44467803  0.65687179  0.98463660    -0.80900
O19         O  0.44257936  0.50274412  0.94529030    -0.84300
O20         O  0.43998527  0.50328014  0.03335965    -2.19000
O21         O  0.59942622  0.41051587  0.07047603    -0.67700
O22         O  0.55538109  0.45030630  0.12207646    -0.52300
C23         C  0.58645758  0.42050394  0.11160673     0.71100
O24         O  0.60800283  0.59005979  0.91536059    -0.60600
O25         O  0.56429734  0.55227112  0.86218700    -0.52600
C26         C  0.59656107  0.58033836  0.87373720     0.72900
O27         O  0.60268451  0.59099483  0.07077184    -0.72000
O28         O  0.55978680  0.55041616  0.12262824    -0.50700
C29         C  0.59154554  0.57959545  0.11216812     0.74300
O30         O  0.60337650  0.41024442  0.91537593    -0.67300
O31         O  0.56446916  0.45237549  0.86165687    -0.54500
C32         C  0.59431328  0.42198984  0.87367944     0.72600
Zr33       Zr  0.57827293  0.43242284  0.99239984     2.77500
O34         O  0.66179329  0.43223150  0.99318630    -0.98100
O35         O  0.57477167  0.34792437  0.99225375    -0.78900
Zr36       Zr  0.58004326  0.57074253  0.99232820     2.70100
O37         O  0.66338926  0.56908615  0.99543891    -0.80100
O38         O  0.57889225  0.65535978  0.99164170    -0.99200
Zr39       Zr  0.51286622  0.50191826  0.90396909     2.21500
Zr40       Zr  0.50832197  0.50292759  0.07794518     2.11100
O41         O  0.57879543  0.50163561  0.03647070    -2.47900
O42         O  0.58126270  0.50150324  0.94811042    -0.79900
O43         O  0.50899829  0.43233073  0.03549579    -0.72100
O44         O  0.51276996  0.57271382  0.94639220    -2.33100
O45         O  0.51109569  0.43150351  0.94675401    -2.29300
O46         O  0.51041035  0.57317878  0.03482389    -0.73900
H47         H  0.41309776  0.50375786  0.05279320     0.78100
H48         H  0.51357943  0.59935314  0.92615192     0.79200
H49         H  0.60479140  0.50117314  0.05696466     0.81400
H50         H  0.51136108  0.40476212  0.92668200     0.79000
H51         H  0.46534247  0.66648495  0.00984751     0.42100
H52         H  0.55323297  0.66377373  0.01234135     0.41000
H53         H  0.67119754  0.53561570  0.99547186     0.40700
H54         H  0.67031776  0.44964602  0.02123440     0.38600
H55         H  0.54706550  0.34039469  0.01053191     0.41800
H56         H  0.46193641  0.34126134  0.95951992     0.36600
H57         H  0.34870738  0.45217707  0.01315996     0.42700
H58         H  0.35036689  0.56188573  0.01944069     0.39100
H59         H  0.67013348  0.39961261  0.00006208     0.44000
H60         H  0.41627529  0.33795856  0.98777556     0.42700
H61         H  0.35038776  0.60317734  0.98428749     0.42900
H62         H  0.60678692  0.66461826  0.00869241     0.43200
O63         O  0.42594797  0.92716972  0.39589582    -0.75600
O64         O  0.46355577  0.87257189  0.43855268    -0.54500
C65         C  0.43537070  0.88496925  0.40700120     0.78100
O66         O  0.60742579  0.08426216  0.40756987    -0.60200
O67         O  0.56148166  0.13609668  0.44514040    -0.53300
C68         C  0.59368839  0.12576557  0.41685131     0.70100
O69         O  0.60536057  0.92715502  0.39948270    -0.74800
O70         O  0.56232627  0.87268074  0.43704469    -0.55400
C71         C  0.59292699  0.88494277  0.40759857     0.76100
O72         O  0.42533752  0.08339931  0.40105764    -0.59900
O73         O  0.46259663  0.13590385  0.44630834    -0.53100
C74         C  0.43424280  0.12516607  0.41422360     0.72700
Zr75       Zr  0.44696143  0.00453072  0.42273176     2.54700
O76         O  0.44946915  0.00680794  0.33915313    -0.80500
O77         O  0.36350428  0.00481758  0.42521058    -0.93900
Zr78       Zr  0.58363116  0.00481124  0.42570737     2.64700
O79         O  0.58290347  0.00902614  0.34211565    -0.98900
O80         O  0.66695131  0.00233456  0.42951350    -0.80900
O81         O  0.51537339  0.96005899  0.42175092    -0.84300
O82         O  0.51518112  0.04920276  0.42435521    -2.19000
O83         O  0.41772131  0.07855876  0.58130372    -0.73200
O84         O  0.46225193  0.13263014  0.54519254    -0.52300
C85         C  0.42967574  0.12083990  0.57263506     0.71100
O86         O  0.60124260  0.92163756  0.58474417    -0.60600
O87         O  0.56303561  0.86996014  0.53943001    -0.52600
C88         C  0.59174862  0.88007011  0.57129617     0.72900
O89         O  0.60520967  0.07832160  0.58475167    -0.72000
O90         O  0.56590062  0.13287345  0.54374234    -0.50700
C91         C  0.59611393  0.12057894  0.57346851     0.74300
O92         O  0.42281118  0.92119941  0.58115562    -0.67300
O93         O  0.46385037  0.86917964  0.53868225    -0.54500
C94         C  0.43405423  0.87954022  0.56960926     0.72600
Zr95       Zr  0.44370555  0.00058644  0.55968230     2.77500
O96         O  0.44602517  0.99746732  0.64326745    -0.98100
O97         O  0.36032923  0.99740978  0.55757886    -0.78900
Zr98       Zr  0.58014610  0.00064757  0.56242094     2.70100
O99         O  0.57543335  0.00076701  0.64593217    -0.80100
O100        O  0.66355557  0.99711587  0.56339860    -0.99200
Zr101      Zr  0.51359673  0.91464028  0.48984211     2.21500
Zr102      Zr  0.51319848  0.09069511  0.49496277     2.11100
O103        O  0.51187181  0.04556852  0.56362257    -2.47900
O104        O  0.51192807  0.95583055  0.56052309    -0.79900
O105        O  0.44402907  0.04721243  0.49236484    -0.72100
O106        O  0.58306576  0.95797863  0.49273046    -2.33100
O107        O  0.44419826  0.95791749  0.48993349    -2.29300
O108        O  0.58271420  0.04757176  0.49535597    -0.73900
H109        H  0.51564288  0.07016870  0.39842736     0.78100
H110        H  0.60947654  0.93774364  0.49261752     0.79200
H111        H  0.51139504  0.06520447  0.59055865     0.81400
H112        H  0.41784435  0.93756935  0.48896025     0.79000
H113        H  0.67442488  0.01601120  0.45979415     0.42100
H114        H  0.67375343  0.02598068  0.54787496     0.41000
H115        H  0.54863878  0.98083350  0.65304808     0.40700
H116        H  0.45493251  0.02917575  0.65297868     0.38600
H117        H  0.35176477  0.01836403  0.53200160     0.41800
H118        H  0.35516072  0.97795729  0.44482074     0.36600
H119        H  0.47982860  0.99370406  0.33115140     0.42700
H120        H  0.56379599  0.03647105  0.33484871     0.39100
H121        H  0.41351739  0.99445923  0.65268746     0.44000
H122        H  0.35405794  0.99551780  0.39387590     0.42700
H123        H  0.61445159  0.01850328  0.33362218     0.42900
H124        H  0.67181801  0.00173518  0.59606366     0.43200
O125        O  0.93609203  0.59557339  0.39740510    -0.75600
O126        O  0.88245186  0.55447060  0.43790370    -0.54500
C127        C  0.89443636  0.58496747  0.40785147     0.78100
O128        O  0.08892475  0.40948129  0.39611493    -0.60200
O129        O  0.14169240  0.44867109  0.43897880    -0.53300
C130        C  0.13035671  0.41885446  0.40816689     0.70100
O131        O  0.93463554  0.41053332  0.39453322    -0.74800
O132        O  0.88196068  0.45297591  0.43469449    -0.55400
C133        C  0.89333260  0.42217480  0.40486321     0.76100
O134        O  0.09067704  0.59372916  0.39878495    -0.59900
O135        O  0.14218980  0.55012775  0.43877050    -0.53100
C136        C  0.13187272  0.58134932  0.40888559     0.72700
Zr137      Zr  0.01283751  0.57255290  0.42218901     2.54700
O138        O  0.01265546  0.57782879  0.33869905    -0.80500
O139        O  0.01410710  0.65670544  0.43099363    -0.93900
Zr140      Zr  0.01159521  0.43422433  0.41666592     2.64700
O141        O  0.01243836  0.44451351  0.33359273    -0.98900
O142        O  0.01136664  0.34992717  0.40953490    -0.80900
O143        O  0.96794287  0.50381422  0.41786272    -0.84300
O144        O  0.05623833  0.50290619  0.41873135    -2.19000
O145        O  0.08895208  0.58877049  0.58253807    -0.67700
O146        O  0.14130945  0.55059657  0.53812031    -0.52300
C147        C  0.13031779  0.57943319  0.56997781     0.71100
O148        O  0.93203205  0.40718673  0.57544166    -0.60600
O149        O  0.87984561  0.45190718  0.53753576    -0.52600
C150        C  0.89073141  0.41992987  0.56642518     0.72900
O151        O  0.08682726  0.40401248  0.57678703    -0.72000
O152        O  0.14007535  0.44777297  0.53894398    -0.50700
C153        C  0.12846710  0.41588434  0.56775940     0.74300
O154        O  0.93352648  0.58722690  0.58326162    -0.67300
O155        O  0.88096866  0.55051500  0.53804066    -0.54500
C156        C  0.89210530  0.57809206  0.57085454     0.72600
Zr157      Zr  0.01135021  0.56650047  0.55918867     2.77500
O158        O  0.00945342  0.56124535  0.64271693    -0.98100
O159        O  0.01227555  0.65108243  0.56067896    -0.78900
Zr160      Zr  0.01007671  0.42791789  0.55295794     2.70100
O161        O  0.00773246  0.42178974  0.63632914    -0.80100
O162        O  0.00869062  0.34388268  0.54283670    -0.99200
Zr163      Zr  0.92441144  0.50148273  0.48702042     2.21500
Zr164      Zr  0.09831902  0.49951612  0.48858545     2.11100
O165        O  0.05468751  0.49682796  0.55779162    -2.47900
O166        O  0.96677734  0.49759985  0.55657282    -0.79900
O167        O  0.05626073  0.57017639  0.49108981    -0.72100
O168        O  0.96644298  0.43053996  0.48451931    -2.33100
O169        O  0.96801848  0.57134810  0.49036052    -2.29300
O170        O  0.05522228  0.42946256  0.48516294    -0.73900
H171        H  0.07648432  0.50345497  0.39241311     0.78100
H172        H  0.94620918  0.40395416  0.48355730     0.79200
H173        H  0.07431476  0.49566107  0.58447593     0.81400
H174        H  0.94828693  0.59828281  0.49121576     0.79000
H175        H  0.99419620  0.33886512  0.43683186     0.42100
H176        H  0.03503124  0.33720242  0.52235584     0.41000
H177        H  0.01070484  0.45425374  0.64719836     0.40700
H178        H  0.03867887  0.54610563  0.65124366     0.38600
H179        H  0.99155729  0.66054683  0.53546611     0.41800
H180        H  0.02771468  0.66836674  0.40197724     0.36600
H181        H  0.03241619  0.55188096  0.32839043     0.42700
H182        H  0.04432231  0.45364201  0.32603885     0.39100
H183        H  0.01279887  0.59376024  0.65333816     0.44000
H184        H  0.03792920  0.66256171  0.45448106     0.42700
H185        H  0.00932196  0.41263526  0.32117587     0.42900
H186        H  0.01786963  0.33120439  0.57307905     0.43200
C187        C  0.73883891  0.33535949  0.31791729     0.79900
N188        N  0.71861581  0.35281025  0.27968605    -0.78400
C189        C  0.67989626  0.33303836  0.26281608     0.82300
N190        N  0.66112800  0.29600157  0.28485792    -0.78400
C191        C  0.68153788  0.27788186  0.32270223     0.82400
N192        N  0.72028130  0.29780396  0.33912637    -0.80100
C193        C  0.74157710  0.67526334  0.31860231     0.79900
N194        N  0.72160275  0.65340195  0.28234929    -0.78400
C195        C  0.68280594  0.67083210  0.26326916     0.82300
N196        N  0.66413684  0.71044812  0.28019027    -0.78400
C197        C  0.68425099  0.73318691  0.31568764     0.82400
N198        N  0.72277117  0.71522902  0.33484912    -0.80100
C199        C  0.68762265  0.32899142  0.72475813     0.79900
N200        N  0.66963094  0.28941981  0.70650492    -0.78400
C201        C  0.68782522  0.27066280  0.66764519     0.82300
N202        N  0.72390604  0.29193453  0.64692935    -0.78400
C203        C  0.74194031  0.33147398  0.66460007     0.82400
N204        N  0.72352519  0.35004629  0.70329179    -0.80100
C205        C  0.34035494  0.73218451  0.32036174     0.79900
N206        N  0.35757391  0.71521804  0.28026341    -0.78400
C207        C  0.33878116  0.67719770  0.25982595     0.82300
N208        N  0.30233986  0.65595628  0.28018203    -0.78400
C209        C  0.28502458  0.67241202  0.32030804     0.82400
N210        N  0.30412345  0.71032966  0.34015428    -0.80100
C211        C  0.34084535  0.66783898  0.71602925     0.79900
N212        N  0.36139887  0.70532038  0.69641869    -0.78400
C213        C  0.34513863  0.72309561  0.65645363     0.82300
N214        N  0.30798832  0.70344225  0.63632882    -0.78400
C215        C  0.28701495  0.66614362  0.65572787     0.82400
N216        N  0.30379575  0.64819069  0.69547270    -0.80100
C217        C  0.33899402  0.33413981  0.71843244     0.79900
N218        N  0.35844721  0.29569956  0.69968243    -0.78400
C219        C  0.33901946  0.27420371  0.66307099     0.82300
N220        N  0.29970156  0.29133973  0.64486568    -0.78400
C221        C  0.28039086  0.33026377  0.66275493     0.82400
N222        N  0.30024051  0.35156119  0.69932273    -0.80100
C223        C  0.68472895  0.67074412  0.72004902     0.79900
N224        N  0.72225764  0.65111907  0.70028335    -0.78400
C225        C  0.74002283  0.66909067  0.66085928     0.82300
N226        N  0.72030698  0.70714022  0.64164336    -0.78400
C227        C  0.68352443  0.72762693  0.66173732     0.82400
N228        N  0.66564511  0.70909688  0.70072198    -0.80100
C229        C  0.33881784  0.27121170  0.31682175     0.79900
N230        N  0.29977418  0.28902795  0.33502913    -0.78400
C231        C  0.27862735  0.32572361  0.31491941     0.82300
N232        N  0.29754839  0.34567913  0.27707782    -0.78400
C233        C  0.33674779  0.32832131  0.25854788     0.82400
N234        N  0.35750159  0.29133255  0.27885075    -0.80100
C235        C  0.20500009  0.41917577  0.60424950    -0.26700
C236        C  0.16608497  0.39266244  0.59314500    -0.14700
C237        C  0.16495762  0.34499530  0.60561129     0.35900
C238        C  0.20257859  0.32521618  0.62818995    -0.26100
C239        C  0.24103026  0.35208593  0.63958500    -0.15400
C240        C  0.24242603  0.39944689  0.62724645     0.37000
N241        N  0.28237535  0.42704500  0.63705579    -0.89600
H242        H  0.20628711  0.45562393  0.59488023     0.18100
H243        H  0.20164613  0.28866649  0.63722975     0.18100
N244        N  0.12693374  0.31546044  0.59474500    -0.88600
H245        H  0.27783113  0.46127410  0.62587679     0.35500
H246        H  0.30962246  0.41344697  0.61791842     0.40600
H247        H  0.12094037  0.31719014  0.55937530     0.40200
H248        H  0.09798757  0.32730028  0.61237571     0.35100
C249        C  0.20451544  0.62074122  0.56546631    -0.26700
C250        C  0.16854010  0.60383413  0.59289218    -0.14700
C251        C  0.17141595  0.60826939  0.64119374     0.35900
C252        C  0.21057828  0.62806359  0.66088639    -0.26100
C253        C  0.24660357  0.64490720  0.63341851    -0.15400
C254        C  0.24335883  0.64150484  0.58508620     0.37000
N255        N  0.27987063  0.65808740  0.55608729    -0.89600
H256        H  0.20236298  0.61748863  0.52842493     0.18100
H257        H  0.21259491  0.63084656  0.69797425     0.18100
N258        N  0.13582831  0.59194073  0.67114116    -0.88600
H259        H  0.27171952  0.65359961  0.52139171     0.35500
H260        H  0.30864262  0.63745354  0.56246861     0.40600
H261        H  0.12998765  0.55674958  0.66436454     0.40200
H262        H  0.10591929  0.61060893  0.66426012     0.35100
C263        C  0.21274618  0.60821686  0.40785631    -0.26700
C264        C  0.17053567  0.60465690  0.38494705    -0.14700
C265        C  0.16653415  0.62281415  0.33986425     0.35900
C266        C  0.20465520  0.64454883  0.31925952    -0.26100
C267        C  0.24628694  0.64874623  0.34281360    -0.15400
C268        C  0.25032080  0.63015325  0.38749514     0.37000
N269        N  0.29248401  0.63191769  0.41258100    -0.89600
H270        H  0.21657314  0.59428159  0.44224524     0.18100
H271        H  0.20185683  0.65857043  0.28479465     0.18100
N272        N  0.12426567  0.61855820  0.31489218    -0.88600
H273        H  0.30100903  0.66663049  0.41844465     0.35500
H274        H  0.31823284  0.61667117  0.39261711     0.40600
H275        H  0.11872671  0.58318453  0.30880338     0.40200
H276        H  0.12697941  0.63445307  0.28266741     0.35100
C277        C  0.16337626  0.38328769  0.33761019    -0.26700
C278        C  0.16759377  0.39362897  0.38457180    -0.14700
C279        C  0.20716327  0.37945835  0.40835584     0.35900
C280        C  0.24215055  0.35635764  0.38473159    -0.26100
C281        C  0.23865201  0.34707439  0.33755615    -0.15400
C282        C  0.19817821  0.35981292  0.31375047     0.37000
N283        N  0.19060658  0.34892450  0.26609077    -0.89600
H284        H  0.13278129  0.39364352  0.31918140     0.18100
H285        H  0.27276030  0.34636602  0.40334025     0.18100
N286        N  0.21165081  0.38770630  0.45670169    -0.88600
H287        H  0.16109875  0.32832280  0.26425723     0.35500
H288        H  0.21688912  0.32853218  0.25260326     0.40600
H289        H  0.24137076  0.40732459  0.46200647     0.40200
H290        H  0.21586297  0.35564926  0.47310246     0.35100
C291        C  0.81419652  0.62649291  0.66417511    -0.26700
C292        C  0.77891721  0.64592011  0.63765200    -0.14700
C293        C  0.78078464  0.64223422  0.58925350     0.35900
C294        C  0.81838777  0.62019327  0.56851769    -0.26100
C295        C  0.85416109  0.60172973  0.59495428    -0.15400
C296        C  0.85180391  0.60472205  0.64340045     0.37000
N297        N  0.88616579  0.58468254  0.67236875    -0.89600
H298        H  0.81274924  0.62861426  0.70133944     0.18100
H299        H  0.81980935  0.61736906  0.53139929     0.18100
N300        N  0.74404333  0.65983939  0.56135866    -0.88600
H301        H  0.91736070  0.60141756  0.66610971     0.35500
H302        H  0.88948038  0.54948527  0.66406586     0.40600
H303        H  0.71462619  0.64056517  0.56920573     0.40200
H304        H  0.75080357  0.65424613  0.52650765     0.35100
C305        C  0.81633757  0.32783738  0.62365104    -0.26700
C306        C  0.78003777  0.35485299  0.64044288    -0.14700
C307        C  0.77983530  0.40322197  0.63247751     0.35900
C308        C  0.81618267  0.42355504  0.60779040    -0.26100
C309        C  0.85306961  0.39666652  0.59173135    -0.15400
C310        C  0.85328384  0.34823435  0.60004047     0.37000
N311        N  0.89014048  0.31965237  0.58333141    -0.89600
H312        H  0.81619638  0.29065445  0.62968008     0.18100
H313        H  0.81599997  0.46068929  0.60146253     0.18100
N314        N  0.74241928  0.43132582  0.64871697    -0.88600
H315        H  0.88272003  0.28447182  0.58855212     0.35500
H316        H  0.91893295  0.32668855  0.60347934     0.40600
H317        H  0.71285021  0.42072679  0.63136595     0.40200
H318        H  0.74768231  0.46624818  0.64021277     0.35100
C319        C  0.82170059  0.42686928  0.36074960    -0.26700
C320        C  0.85582120  0.39908573  0.38039820    -0.14700
C321        C  0.85222886  0.35026028  0.37851475     0.35900
C322        C  0.81371240  0.33020992  0.35756971    -0.26100
C323        C  0.77948847  0.35801838  0.33781051    -0.15400
C324        C  0.78353230  0.40690171  0.33930058     0.37000
N325        N  0.74829260  0.43609561  0.32042341    -0.89600
H326        H  0.82470043  0.46439366  0.36261003     0.18100
H327        H  0.81039712  0.29270007  0.35655038     0.18100
N328        N  0.88647199  0.32136400  0.39956831    -0.88600
H329        H  0.75691876  0.47119684  0.32402212     0.35500
H330        H  0.71854058  0.43080832  0.33986595     0.40600
H331        H  0.91653936  0.32464610  0.38023062     0.40200
H332        H  0.87702080  0.28634805  0.39761384     0.35100
C333        C  0.82767006  0.63784910  0.40985229    -0.26700
C334        C  0.85735903  0.60992432  0.38402770    -0.14700
C335        C  0.84987425  0.60430444  0.33655754     0.35900
C336        C  0.81201649  0.62617059  0.31593049    -0.26100
C337        C  0.78194596  0.65416408  0.34168211    -0.15400
C338        C  0.79007645  0.66015214  0.38931287     0.37000
N339        N  0.75953717  0.68761590  0.41704202    -0.89600
H340        H  0.83359734  0.64176778  0.44640267     0.18100
H341        H  0.80600931  0.62135677  0.27951124     0.18100
N342        N  0.87966027  0.57499377  0.30990544    -0.88600
H343        H  0.77125289  0.68954937  0.45090718     0.35500
H344        H  0.72795997  0.67039399  0.41817433     0.40600
H345        H  0.91192947  0.59080719  0.30890191     0.40200
H346        H  0.86836856  0.57307282  0.27588103     0.35100
C347        C  0.62914097  0.15474851  0.64445073    -0.26700
C348        C  0.62193063  0.15778294  0.59687164    -0.14700
C349        C  0.63851618  0.19671423  0.57247750     0.35900
C350        C  0.66020373  0.23275905  0.59657883    -0.26100
C351        C  0.66559803  0.23082547  0.64451778    -0.15400
C352        C  0.65028975  0.19116440  0.66871220     0.37000
N353        N  0.65698497  0.18747748  0.71747482    -0.89600
H354        H  0.61685202  0.12449248  0.66298506     0.18100
H355        H  0.67239812  0.26294219  0.57786382     0.18100
N356        N  0.63368576  0.19926247  0.52334215    -0.88600
H357        H  0.64747657  0.15443766  0.72910924     0.35500
H358        H  0.63426355  0.21064736  0.73307754     0.40600
H359        H  0.65301640  0.17227484  0.50906642     0.40200
H360        H  0.64763632  0.23024585  0.51069198     0.35100
C361        C  0.42929485  0.20068158  0.60452773    -0.26700
C362        C  0.40524393  0.15919071  0.59625586    -0.14700
C363        C  0.35875576  0.15582203  0.60990540     0.35900
C364        C  0.33780425  0.19383716  0.63200268    -0.26100
C365        C  0.36240660  0.23475609  0.64091627    -0.15400
C366        C  0.40860292  0.23814729  0.62666442     0.37000
N367        N  0.43501696  0.27971034  0.63277498    -0.89600
H368        H  0.46483102  0.20405796  0.59402729     0.18100
H369        H  0.30214808  0.19159003  0.64235274     0.18100
N370        N  0.33275823  0.11442673  0.60055913    -0.88600
H371        H  0.43890285  0.28588373  0.66789279     0.35500
H372        H  0.41736295  0.30751291  0.61792726     0.40600
H373        H  0.32988295  0.11138568  0.56487449     0.40200
H374        H  0.29937970  0.11749410  0.61338842     0.35100
C375        C  0.36684126  0.23523096  0.38866991    -0.26700
C376        C  0.36245886  0.23264407  0.34062989    -0.14700
C377        C  0.38103615  0.19382080  0.31710346     0.35900
C378        C  0.40541435  0.16026682  0.34199900    -0.26100
C379        C  0.41039857  0.16326025  0.38987795    -0.15400
C380        C  0.39056341  0.20102207  0.41359524     0.37000
N381        N  0.39290395  0.20362981  0.46290359    -0.89600
H382        H  0.35213330  0.26452749  0.40686161     0.18100
H383        H  0.41992635  0.13092078  0.32371455     0.18100
N384        N  0.37462916  0.18613732  0.26865139    -0.88600
H385        H  0.37322528  0.23137635  0.47511018     0.35500
H386        H  0.42679813  0.21121711  0.47174094     0.40600
H387        H  0.35140327  0.20962540  0.25463113     0.40200
H388        H  0.35897232  0.15365738  0.26478338     0.35100
C389        C  0.66379324  0.16525676  0.38857717    -0.26700
C390        C  0.61593986  0.16455278  0.39262216    -0.14700
C391        C  0.58970378  0.20087828  0.37350644     0.35900
C392        C  0.61208885  0.23730862  0.35062712    -0.26100
C393        C  0.66006989  0.23858414  0.34721492    -0.15400
C394        C  0.68632688  0.20234990  0.36672171     0.37000
N395        N  0.73551067  0.20251073  0.36319304    -0.89600
H396        H  0.68367566  0.13725141  0.40345108     0.18100
H397        H  0.59197717  0.26516038  0.33577844     0.18100
N398        N  0.54047083  0.20033071  0.37693311    -0.88600
H399        H  0.74899961  0.17116999  0.37530931     0.35500
H400        H  0.74776026  0.22817549  0.38541510     0.40600
H401        H  0.52854957  0.17163567  0.35841859     0.40200
H402        H  0.52640559  0.22979720  0.36136954     0.35100
C403        C  0.38128616  0.80105568  0.66085479    -0.26700
C404        C  0.36843874  0.76264168  0.63422286    -0.14700
C405        C  0.37782723  0.76244972  0.58663615     0.35900
C406        C  0.39891401  0.80129628  0.56647289    -0.26100
C407        C  0.41078880  0.84033906  0.59282189    -0.15400
C408        C  0.40190440  0.83999192  0.64069558     0.37000
N409        N  0.41444302  0.87795232  0.66992431    -0.89600
H410        H  0.37452330  0.80113364  0.69750716     0.18100
H411        H  0.40607868  0.80112927  0.52990212     0.18100
N412        N  0.36681678  0.72246186  0.55916816    -0.88600
H413        H  0.39565117  0.90724519  0.66032073     0.35500
H414        H  0.44941162  0.88477117  0.66560829     0.40600
H415        H  0.38692188  0.69481828  0.57083138     0.40200
H416        H  0.37584495  0.72800035  0.52479625     0.35100
C417        C  0.62386754  0.84307605  0.64153963    -0.26700
C418        C  0.61568333  0.84102779  0.59401311    -0.14700
C419        C  0.63101762  0.80199647  0.56876636     0.35900
C420        C  0.65406819  0.76603560  0.59165907    -0.26100
C421        C  0.66105040  0.76751570  0.63926749    -0.15400
C422        C  0.64597463  0.80643325  0.66454794     0.37000
N423        N  0.65357425  0.80877830  0.71329400    -0.89600
H424        H  0.61236145  0.87307402  0.66087832     0.18100
H425        H  0.66565217  0.73603243  0.57236817     0.18100
N426        N  0.62444132  0.79949570  0.51983748    -0.88600
H427        H  0.64031237  0.83966654  0.72674741     0.35500
H428        H  0.68899905  0.80980452  0.71863730     0.40600
H429        H  0.58973013  0.79270407  0.51401273     0.40200
H430        H  0.64217077  0.77116064  0.50605541     0.35100
C431        C  0.66392895  0.84625584  0.38047983    -0.26700
C432        C  0.61588725  0.84763816  0.38159073    -0.14700
C433        C  0.59047183  0.81318384  0.35835791     0.35900
C434        C  0.61377773  0.77746522  0.33525389    -0.26100
C435        C  0.66185399  0.77458816  0.33605064    -0.15400
C436        C  0.68726838  0.80991725  0.35819417     0.37000
N437        N  0.73654963  0.80885373  0.35797199    -0.89600
H438        H  0.68326463  0.87308427  0.39801096     0.18100
H439        H  0.59410481  0.75068155  0.31808003     0.18100
N440        N  0.54118874  0.81497792  0.35757326    -0.88600
H441        H  0.74988775  0.83708554  0.37620624     0.35500
H442        H  0.74737915  0.81278027  0.32390729     0.40600
H443        H  0.52936532  0.80704281  0.39058510     0.40200
H444        H  0.52801924  0.78911616  0.33607815     0.35100
C445        C  0.39091931  0.80199981  0.31612690    -0.26700
C446        C  0.36214519  0.77318988  0.34269833    -0.14700
C447        C  0.35650458  0.78321082  0.39012912     0.35900
C448        C  0.38152031  0.81974374  0.40980144    -0.26100
C449        C  0.41052959  0.84773735  0.38326298    -0.15400
C450        C  0.41494790  0.83926388  0.33561763     0.37000
N451        N  0.44381456  0.86688487  0.30609971    -0.89600
H452        H  0.39516402  0.79544832  0.27969754     0.18100
H453        H  0.37786309  0.82697747  0.44620029     0.18100
N454        N  0.32618642  0.75618043  0.41859048    -0.88600
H455        H  0.46901491  0.84502460  0.29248460     0.35500
H456        H  0.46117723  0.89272293  0.32419211     0.40600
H457        H  0.29265151  0.76444692  0.40899225     0.40200
H458        H  0.32909078  0.76592028  0.45308302     0.35100
C459        C  0.65778123  0.39433528  0.14950199    -0.26700
C460        C  0.60973248  0.39653181  0.14964155    -0.14700
C461        C  0.58476242  0.37574163  0.18580454     0.35900
C462        C  0.60856991  0.35391765  0.22163905    -0.26100
C463        C  0.65667591  0.35335979  0.22254685    -0.15400
C464        C  0.68161661  0.37308572  0.18571878     0.37000
N465        N  0.73087890  0.37108217  0.18499333    -0.89600
H466        H  0.67675689  0.40990590  0.12133657     0.18100
H467        H  0.58942488  0.33842747  0.24971477     0.18100
N468        N  0.53543811  0.37564545  0.18539635    -0.88600
H469        H  0.74385729  0.38740143  0.15558464     0.35500
H470        H  0.74025376  0.33608999  0.18271019     0.40600
H471        H  0.52444092  0.40958543  0.19178591     0.40200
H472        H  0.52256118  0.35546306  0.21240970     0.35100
C473        C  0.59423670  0.60598122  0.19344238    -0.26700
C474        C  0.61655699  0.60169894  0.15078236    -0.14700
C475        C  0.66201298  0.61850536  0.14608716     0.35900
C476        C  0.68328287  0.64038531  0.18367322    -0.26100
C477        C  0.66002758  0.64609163  0.22544589    -0.15400
C478        C  0.61518739  0.62833876  0.23041329     0.37000
N479        N  0.59039508  0.63184627  0.27284105    -0.89600
H480        H  0.55976483  0.59263876  0.19798004     0.18100
H481        H  0.71792599  0.65363696  0.18023207     0.18100
N482        N  0.68659711  0.61296534  0.10355659    -0.88600
H483        H  0.58563147  0.66695799  0.28057177     0.35500
H484        H  0.61002681  0.61667291  0.29884123     0.40600
H485        H  0.69153161  0.57735224  0.09841143     0.40200
H486        H  0.71923097  0.62787675  0.10575050     0.35100
C487        C  0.36072361  0.60406415  0.15248341    -0.26700
C488        C  0.40713856  0.61357761  0.14422431    -0.14700
C489        C  0.43015709  0.64654069  0.17185658     0.35900
C490        C  0.40649679  0.66787856  0.20808064    -0.26100
C491        C  0.36043557  0.65701972  0.21791938    -0.15400
C492        C  0.33695234  0.62555376  0.18882983     0.37000
N493        N  0.28916994  0.61551297  0.19605645    -0.89600
H494        H  0.34313000  0.57918869  0.13078678     0.18100
H495        H  0.42495615  0.69237887  0.22943601     0.18100
N496        N  0.47710959  0.65980743  0.16396856    -0.88600
H497        H  0.27744125  0.59118731  0.17211602     0.35500
H498        H  0.27092282  0.64616150  0.18998353     0.40600
H499        H  0.49134648  0.64274735  0.13571732     0.40200
H500        H  0.49602252  0.64981922  0.19278428     0.35100
C501        C  0.40374130  0.35021207  0.14824764    -0.26700
C502        C  0.40171972  0.39878487  0.14544831    -0.14700
C503        C  0.37650738  0.42389705  0.17859176     0.35900
C504        C  0.35465077  0.40007086  0.21433088    -0.26100
C505        C  0.35805759  0.35151690  0.21837604    -0.15400
C506        C  0.38237621  0.32623251  0.18457135     0.37000
N507        N  0.38497895  0.27640859  0.18698303    -0.89600
H508        H  0.42279017  0.33104838  0.12245971     0.18100
H509        H  0.33583051  0.41987033  0.23980491     0.18100
N510        N  0.37184656  0.47345305  0.17632255    -0.88600
H511        H  0.40458006  0.26328106  0.15981401     0.35500
H512        H  0.35176885  0.26342300  0.18268732     0.40600
H513        H  0.35832595  0.48227845  0.14423429     0.40200
H514        H  0.40423335  0.48863965  0.17949513     0.35100
C515        C  0.59391991  0.62238747  0.80012315    -0.26700
C516        C  0.62059057  0.60428860  0.83588124    -0.14700
C517        C  0.66884680  0.60754748  0.83348439     0.35900
C518        C  0.68928352  0.62935796  0.79521820    -0.26100
C519        C  0.66237261  0.64820128  0.75985392    -0.15400
C520        C  0.61418602  0.64396907  0.76201094     0.37000
N521        N  0.58602361  0.66021817  0.72481940    -0.89600
H522        H  0.55690182  0.61926971  0.80178778     0.18100
H523        H  0.72629932  0.63193453  0.79307367     0.18100
N524        N  0.69686682  0.58702704  0.86863184    -0.88600
H525        H  0.55129608  0.65467544  0.73200435     0.35500
H526        H  0.59376552  0.64004287  0.69594943     0.40600
H527        H  0.69247492  0.60655408  0.89857998     0.40200
H528        H  0.73157854  0.58974646  0.85994995     0.35100
C529        C  0.61943166  0.34988809  0.83477119    -0.26700
C530        C  0.61985913  0.39854084  0.83680071    -0.14700
C531        C  0.64479561  0.42399356  0.80364348     0.35900
C532        C  0.66759880  0.40043879  0.76843032    -0.26100
C533        C  0.66582551  0.35170357  0.76503808    -0.15400
C534        C  0.64229889  0.32608973  0.79929724     0.37000
N535        N  0.64218754  0.27616612  0.79840215    -0.89600
H536        H  0.60075573  0.33046236  0.86070663     0.18100
H537        H  0.68591945  0.42065991  0.74285594     0.18100
N538        N  0.64828606  0.47367804  0.80537721    -0.88600
H539        H  0.62313431  0.26278767  0.82588870     0.35500
H540        H  0.67597362  0.26509318  0.80317320     0.40600
H541        H  0.66121660  0.48322132  0.83750916     0.40200
H542        H  0.61560572  0.48795604  0.80160180     0.35100
C543        C  0.40936769  0.35320384  0.76278208    -0.26700
C544        C  0.36161914  0.35786793  0.75770548    -0.14700
C545        C  0.33675006  0.38388589  0.79073083     0.35900
C546        C  0.36012882  0.40374476  0.82813019    -0.26100
C547        C  0.40774804  0.39950777  0.83238991    -0.15400
C548        C  0.43267153  0.37388545  0.79962753     0.37000
N549        N  0.48148613  0.36855858  0.80427290    -0.89600
H550        H  0.42879299  0.33354180  0.73773329     0.18100
H551        H  0.34130875  0.42372252  0.85347256     0.18100
N552        N  0.28791624  0.38936554  0.78697250    -0.88600
H553        H  0.49478574  0.34879416  0.77721693     0.35500
H554        H  0.48754616  0.34970874  0.83439050     0.40600
H555        H  0.28182566  0.41242000  0.75989208     0.40200
H556        H  0.27466747  0.40545888  0.81634090     0.35100
C557        C  0.37183864  0.59809565  0.75451300    -0.26700
C558        C  0.36153066  0.64562914  0.75661831    -0.14700
C559        C  0.37225690  0.67093435  0.79675907     0.35900
C560        C  0.39419994  0.64860097  0.83330689    -0.26100
C561        C  0.40606121  0.60139533  0.83061982    -0.15400
C562        C  0.39394172  0.57560143  0.79111012     0.37000
N563        N  0.40358752  0.52664509  0.78851600    -0.89600
H564        H  0.36321535  0.57860744  0.72385115     0.18100
H565        H  0.40276585  0.66851290  0.86371383     0.18100
N566        N  0.36014829  0.71889832  0.80186117    -0.88600
H567        H  0.39266399  0.51297621  0.75709860     0.35500
H568        H  0.38417782  0.51011811  0.81400443     0.40600
H569        H  0.32482899  0.72216585  0.79672064     0.40200
H570        H  0.37729078  0.73831091  0.77680128     0.35100
loop_ 
_geom_bond_atom_site_label_1 
_geom_bond_atom_site_label_2 
_geom_bond_distance 
_geom_bond_site_symmetry_2 
_ccdc_geom_bond_type 
O1          Zr13   2.444       .  S
O1            C3   1.288       .  A
O2          Zr39   2.415       .  S
O2            C3   1.285       .  A
C3          C547   1.471       .  S
O4          Zr16   2.446   1_554  S
O4            C6   1.287       .  A
O5          Zr40   2.424       .  S
O5            C6   1.286       .  A
C6          C488   1.472       .  S
O7          Zr16   2.447       .  S
O7            C9   1.289       .  A
O8          Zr39   2.411       .  S
O8            C9   1.284       .  A
C9          C561   1.478       .  S
O10         Zr13   2.441   1_554  S
O10          C12   1.287       .  A
O11         Zr40   2.413       .  S
O11          C12   1.284       .  A
C12         C502   1.469       .  S
Zr13         O14   2.435       .  S
Zr13         O15   2.435       .  S
Zr13         O19   2.373       .  S
Zr13         O20   2.376   1_556  S
Zr13         O43   2.371   1_556  S
Zr13         O45   2.372       .  S
O14          H57   0.990   1_556  S
O15          H56   0.990       .  S
O15          H60   0.990       .  S
Zr16         O17   2.437       .  S
Zr16         O18   2.435       .  S
Zr16         O20   2.374   1_556  S
Zr16         O19   2.370       .  S
Zr16         O44   2.373       .  S
Zr16         O46   2.378   1_556  S
O17          H58   0.990   1_556  S
O17          H61   0.990       .  S
O18          H51   0.990   1_556  S
O19         Zr39   2.374       .  S
O20         Zr40   2.381       .  S
O20          H47   0.966       .  S
O21         Zr33   2.438   1_554  S
O21          C23   1.287       .  A
O22         Zr40   2.416       .  S
O22          C23   1.285       .  A
C23         C460   1.471       .  S
O24         Zr36   2.445       .  S
O24          C26   1.288       .  A
O25         Zr39   2.410       .  S
O25          C26   1.285       .  A
C26         C516   1.474       .  S
O27         Zr36   2.448   1_554  S
O27          C29   1.289       .  A
O28         Zr40   2.412       .  S
O28          C29   1.285       .  A
C29         C474   1.484       .  S
O30         Zr33   2.442       .  S
O30          C32   1.287       .  A
O31         Zr39   2.411       .  S
O31          C32   1.284       .  A
C32         C530   1.470       .  S
Zr33         O34   2.436       .  S
Zr33         O35   2.433       .  S
Zr33         O41   2.369   1_556  S
Zr33         O42   2.369       .  S
Zr33         O45   2.370       .  S
Zr33         O43   2.375   1_556  S
O34          H54   0.990   1_556  S
O34          H59   0.990   1_556  S
O35          H55   0.990   1_556  S
Zr36         O37   2.433       .  S
Zr36         O38   2.435       .  S
Zr36         O42   2.372       .  S
Zr36         O41   2.366   1_556  S
Zr36         O46   2.376   1_556  S
Zr36         O44   2.378       .  S
O37          H53   0.990       .  S
O38          H52   0.990   1_556  S
O38          H62   0.990   1_556  S
Zr39         O42   2.375       .  S
Zr39         O44   2.382       .  S
Zr39         O45   2.378       .  S
Zr40         O41   2.381       .  S
Zr40         O43   2.378       .  S
Zr40         O46   2.379       .  S
O41          H49   0.966       .  S
O44          H48   0.966       .  S
O45          H50   0.966       .  S
O63         Zr75   2.437   1_565  S
O63          C65   1.286       .  A
O64        Zr101   2.415       .  S
O64          C65   1.285       .  A
C65         C449   1.467       .  S
O66         Zr78   2.445       .  S
O66          C68   1.289       .  A
O67        Zr102   2.403       .  S
O67          C68   1.283       .  A
C68         C390   1.469       .  S
O69         Zr78   2.445   1_565  S
O69          C71   1.288       .  A
O70        Zr101   2.415       .  S
O70          C71   1.285       .  A
C71         C432   1.474       .  S
O72         Zr75   2.439       .  S
O72          C74   1.288       .  A
O73        Zr102   2.426       .  S
O73          C74   1.286       .  A
C74         C379   1.480       .  S
Zr75         O76   2.434       .  S
Zr75         O77   2.435       .  S
Zr75         O81   2.372   1_545  S
Zr75         O82   2.368       .  S
Zr75        O105   2.371       .  S
Zr75        O107   2.371   1_545  S
O76         H119   0.990   1_545  S
O77         H118   0.990   1_545  S
O77         H122   0.990   1_545  S
Zr78         O79   2.435       .  S
Zr78         O80   2.434       .  S
Zr78         O82   2.372       .  S
Zr78         O81   2.373   1_545  S
Zr78        O106   2.370   1_545  S
Zr78        O108   2.372       .  S
O79         H120   0.990       .  S
O79         H123   0.990       .  S
O80         H113   0.990       .  S
O81        Zr101   2.373       .  S
O82        Zr102   2.377       .  S
O82         H109   0.966       .  S
O83         Zr95   2.451       .  S
O83          C85   1.290       .  A
O84        Zr102   2.408       .  S
O84          C85   1.285       .  A
C85         C362   1.483       .  S
O86         Zr98   2.444   1_565  S
O86          C88   1.289       .  A
O87        Zr101   2.414       .  S
O87          C88   1.284       .  A
C88         C418   1.480       .  S
O89         Zr98   2.439       .  S
O89          C91   1.287       .  A
O90        Zr102   2.420       .  S
O90          C91   1.286       .  A
C91         C348   1.476       .  S
O92         Zr95   2.444   1_565  S
O92          C94   1.288       .  A
O93        Zr101   2.412       .  S
O93          C94   1.285       .  A
C94         C407   1.478       .  S
Zr95         O96   2.435   1_545  S
Zr95         O97   2.434   1_545  S
Zr95        O103   2.374       .  S
Zr95        O104   2.372   1_545  S
Zr95        O107   2.373   1_545  S
Zr95        O105   2.373       .  S
O96         H116   0.990   1_565  S
O96         H121   0.990       .  S
O97         H117   0.990   1_565  S
Zr98         O99   2.434       .  S
Zr98        O100   2.435   1_545  S
Zr98        O104   2.370   1_545  S
Zr98        O103   2.376       .  S
Zr98        O108   2.373       .  S
Zr98        O106   2.373   1_545  S
O99         H115   0.990   1_545  S
O100        H114   0.990   1_565  S
O100        H124   0.990   1_565  S
Zr101       O104   2.375       .  S
Zr101       O106   2.379       .  S
Zr101       O107   2.378       .  S
Zr102       O103   2.382       .  S
Zr102       O105   2.374       .  S
Zr102       O108   2.378       .  S
O103        H111   0.967       .  S
O106        H110   0.966       .  S
O107        H112   0.966       .  S
O125       Zr137   2.446   1_655  S
O125        C127   1.288       .  A
O126       Zr163   2.424       .  S
O126        C127   1.286       .  A
C127        C334   1.473       .  S
O128       Zr140   2.439       .  S
O128        C130   1.287       .  A
O129       Zr164   2.413       .  S
O129        C130   1.285       .  A
C130        C278   1.475       .  S
O131       Zr140   2.433   1_655  S
O131        C133   1.286       .  A
O132       Zr163   2.410       .  S
O132        C133   1.284       .  A
C133        C320   1.465       .  S
O134       Zr137   2.445       .  S
O134        C136   1.288       .  A
O135       Zr164   2.417       .  S
O135        C136   1.286       .  A
C136        C264   1.483       .  S
Zr137       O138   2.434       .  S
Zr137       O139   2.435       .  S
Zr137       O143   2.374   1_455  S
Zr137       O144   2.374       .  S
Zr137       O167   2.375       .  S
Zr137       O169   2.373   1_455  S
O138        H181   0.990       .  S
O139        H180   0.990       .  S
O139        H184   0.990       .  S
Zr140       O141   2.435       .  S
Zr140       O142   2.434       .  S
Zr140       O144   2.366       .  S
Zr140       O143   2.374   1_455  S
Zr140       O168   2.373   1_455  S
Zr140       O170   2.371       .  S
O141        H182   0.990       .  S
O141        H185   0.990       .  S
O142        H175   0.990   1_455  S
O143       Zr163   2.378       .  S
O144       Zr164   2.379       .  S
O144        H171   0.966       .  S
O145       Zr157   2.449       .  S
O145        C147   1.288       .  A
O146       Zr164   2.412       .  S
O146        C147   1.285       .  A
C147        C250   1.477       .  S
O148       Zr160   2.440   1_655  S
O148        C150   1.287       .  A
O149       Zr163   2.422       .  S
O149        C150   1.286       .  A
C150        C309   1.480       .  S
O151       Zr160   2.445       .  S
O151        C153   1.288       .  A
O152       Zr164   2.420       .  S
O152        C153   1.287       .  A
C153        C236   1.484       .  S
O154       Zr157   2.448   1_655  S
O154        C156   1.289       .  A
O155       Zr163   2.408       .  S
O155        C156   1.284       .  A
C156        C295   1.476       .  S
Zr157       O158   2.436       .  S
Zr157       O159   2.434       .  S
Zr157       O165   2.371       .  S
Zr157       O166   2.370   1_455  S
Zr157       O169   2.375   1_455  S
Zr157       O167   2.375       .  S
O158        H178   0.990       .  S
O158        H183   0.990       .  S
O159        H179   0.990   1_455  S
Zr160       O161   2.433       .  S
Zr160       O162   2.436       .  S
Zr160       O166   2.373   1_455  S
Zr160       O165   2.374       .  S
Zr160       O170   2.369       .  S
Zr160       O168   2.367   1_455  S
O161        H177   0.990       .  S
O162        H176   0.990       .  S
O162        H186   0.990       .  S
Zr163       O166   2.376       .  S
Zr163       O168   2.383       .  S
Zr163       O169   2.379       .  S
Zr164       O165   2.381       .  S
Zr164       O167   2.377       .  S
Zr164       O170   2.376       .  S
O165        H173   0.966       .  S
O168        H172   0.966       .  S
O169        H174   0.966       .  S
C187        C323   1.472       .  S
C187        N188   1.357       .  A
C187        N192   1.355       .  A
N188        C189   1.357       .  A
C189        C463   1.476       .  S
C189        N190   1.357       .  A
N190        C191   1.357       .  A
C191        C393   1.474       .  S
C191        N192   1.355       .  A
C193        C337   1.487       .  S
C193        N194   1.360       .  A
C193        N198   1.359       .  A
N194        C195   1.358       .  A
C195        C477   1.471       .  S
C195        N196   1.356       .  A
N196        C197   1.357       .  A
C197        C435   1.482       .  S
C197        N198   1.358       .  A
C199        C533   1.484       .  S
C199        N200   1.362       .  A
C199        N204   1.359       .  A
N200        C201   1.360       .  A
C201        C351   1.479       .  S
C201        N202   1.356       .  A
N202        C203   1.355       .  A
C203        C306   1.475       .  S
C203        N204   1.357       .  A
C205        C446   1.490       .  S
C205        N206   1.360       .  A
C205        N210   1.356       .  A
N206        C207   1.361       .  A
C207        C491   1.490       .  S
C207        N208   1.360       .  A
N208        C209   1.357       .  A
C209        C267   1.471       .  S
C209        N210   1.355       .  A
C211        C558   1.473       .  S
C211        N212   1.358       .  A
C211        N216   1.359       .  A
N212        C213   1.357       .  A
C213        C404   1.473       .  S
C213        N214   1.356       .  A
N214        C215   1.356       .  A
C215        C253   1.479       .  S
C215        N216   1.359       .  A
C217        C544   1.487       .  S
C217        N218   1.358       .  A
C217        N222   1.357       .  A
N218        C219   1.357       .  A
C219        C365   1.473       .  S
C219        N220   1.358       .  A
N220        C221   1.358       .  A
C221        C239   1.474       .  S
C221        N222   1.359       .  A
C223        C519   1.477       .  S
C223        N224   1.359       .  A
C223        N228   1.359       .  A
N224        C225   1.359       .  A
C225        C292   1.479       .  S
C225        N226   1.358       .  A
N226        C227   1.356       .  A
C227        C421   1.476       .  S
C227        N228   1.356       .  A
C229        C376   1.480       .  S
C229        N230   1.356       .  A
C229        N234   1.359       .  A
N230        C231   1.356       .  A
C231        C281   1.473       .  S
C231        N232   1.357       .  A
N232        C233   1.359       .  A
C233        C505   1.481       .  S
C233        N234   1.360       .  A
C235        C236   1.405       .  A
C235        C240   1.402       .  A
C235        H242   1.084       .  S
C236        C237   1.419       .  A
C237        C238   1.401       .  A
C237        N244   1.432       .  S
C238        C239   1.402       .  A
C238        H243   1.084       .  S
C239        C240   1.409       .  A
C240        N241   1.438       .  S
N241        H245   1.046       .  S
N241        H246   1.046       .  S
N244        H247   1.046       .  S
N244        H248   1.044       .  S
C249        C250   1.403       .  A
C249        C254   1.403       .  A
C249        H256   1.084       .  S
C250        C251   1.414       .  A
C251        C252   1.400       .  A
C251        N258   1.432       .  S
C252        C253   1.404       .  A
C252        H257   1.084       .  S
C253        C254   1.413       .  A
C254        N255   1.438       .  S
N255        H259   1.046       .  S
N255        H260   1.045       .  S
N258        H261   1.045       .  S
N258        H262   1.045       .  S
C263        C264   1.405       .  A
C263        C268   1.395       .  A
C263        H270   1.084       .  S
C264        C265   1.417       .  A
C265        C266   1.407       .  A
C265        N272   1.438       .  S
C266        C267   1.401       .  A
C266        H271   1.084       .  S
C267        C268   1.411       .  A
C268        N269   1.432       .  S
N269        H273   1.043       .  S
N269        H274   1.045       .  S
N272        H275   1.046       .  S
N272        H276   1.046       .  S
C277        C278   1.404       .  A
C277        C282   1.403       .  A
C277        H284   1.084       .  S
C278        C279   1.408       .  A
C279        C280   1.398       .  A
C279        N286   1.433       .  S
C280        C281   1.403       .  A
C280        H285   1.084       .  S
C281        C282   1.419       .  A
C282        N283   1.439       .  S
N283        H287   1.046       .  S
N283        H288   1.042       .  S
N286        H289   1.046       .  S
N286        H290   1.046       .  S
C291        C292   1.404       .  A
C291        C296   1.400       .  A
C291        H298   1.084       .  S
C292        C293   1.413       .  A
C293        C294   1.403       .  A
C293        N300   1.438       .  S
C294        C295   1.403       .  A
C294        H299   1.084       .  S
C295        C296   1.414       .  A
C296        N297   1.433       .  S
N297        H301   1.044       .  S
N297        H302   1.046       .  S
N300        H303   1.046       .  S
N300        H304   1.045       .  S
C305        C306   1.401       .  A
C305        C310   1.404       .  A
C305        H312   1.084       .  S
C306        C307   1.411       .  A
C307        C308   1.406       .  A
C307        N314   1.438       .  S
C308        C309   1.405       .  A
C308        H313   1.084       .  S
C309        C310   1.414       .  A
C310        N311   1.438       .  S
N311        H315   1.046       .  S
N311        H316   1.045       .  S
N314        H317   1.046       .  S
N314        H318   1.046       .  S
C319        C320   1.400       .  A
C319        C324   1.400       .  A
C319        H326   1.084       .  S
C320        C321   1.410       .  A
C321        C322   1.403       .  A
C321        N328   1.438       .  S
C322        C323   1.404       .  A
C322        H327   1.084       .  S
C323        C324   1.412       .  A
C324        N325   1.438       .  S
N325        H329   1.046       .  S
N325        H330   1.046       .  S
N328        H331   1.045       .  S
N328        H332   1.046       .  S
C333        C334   1.400       .  A
C333        C338   1.406       .  A
C333        H340   1.084       .  S
C334        C335   1.408       .  A
C335        C336   1.407       .  A
C335        N342   1.438       .  S
C336        C337   1.407       .  A
C336        H341   1.083       .  S
C337        C338   1.417       .  A
C338        N339   1.438       .  S
N339        H343   1.045       .  S
N339        H344   1.046       .  S
N342        H345   1.045       .  S
N342        H346   1.046       .  S
C347        C348   1.404       .  A
C347        C352   1.406       .  A
C347        H354   1.084       .  S
C348        C349   1.410       .  A
C349        C350   1.403       .  A
C349        N356   1.439       .  S
C350        C351   1.405       .  A
C350        H355   1.084       .  S
C351        C352   1.412       .  A
C352        N353   1.437       .  S
N353        H357   1.046       .  S
N353        H358   1.044       .  S
N356        H359   1.046       .  S
N356        H360   1.046       .  S
C361        C362   1.405       .  A
C361        C366   1.393       .  A
C361        H368   1.084       .  S
C362        C363   1.415       .  A
C363        C364   1.408       .  A
C363        N370   1.437       .  S
C364        C365   1.403       .  A
C364        H369   1.084       .  S
C365        C366   1.412       .  A
C366        N367   1.433       .  S
N367        H371   1.044       .  S
N367        H372   1.046       .  S
N370        H373   1.046       .  S
N370        H374   1.046       .  S
C375        C376   1.406       .  A
C375        C380   1.406       .  A
C375        H382   1.084       .  S
C376        C377   1.418       .  A
C377        C378   1.402       .  A
C377        N384   1.440       .  S
C378        C379   1.404       .  A
C378        H383   1.084       .  S
C379        C380   1.411       .  A
C380        N381   1.439       .  S
N381        H385   1.046       .  S
N381        H386   1.045       .  S
N384        H387   1.041       .  S
N384        H388   1.046       .  S
C389        C390   1.401       .  A
C389        C394   1.404       .  A
C389        H396   1.084       .  S
C390        C391   1.411       .  A
C391        C392   1.401       .  A
C391        N398   1.439       .  S
C392        C393   1.403       .  A
C392        H397   1.084       .  S
C393        C394   1.414       .  A
C394        N395   1.438       .  S
N395        H399   1.046       .  S
N395        H400   1.045       .  S
N398        H401   1.046       .  S
N398        H402   1.046       .  S
C403        C404   1.401       .  A
C403        C408   1.399       .  A
C403        H410   1.084       .  S
C404        C405   1.411       .  A
C405        C406   1.403       .  A
C405        N412   1.438       .  S
C406        C407   1.404       .  A
C406        H411   1.084       .  S
C407        C408   1.416       .  A
C408        N409   1.432       .  S
N409        H413   1.044       .  S
N409        H414   1.046       .  S
N412        H415   1.046       .  S
N412        H416   1.046       .  S
C417        C418   1.405       .  A
C417        C422   1.407       .  A
C417        H424   1.084       .  S
C418        C419   1.415       .  A
C419        C420   1.403       .  A
C419        N426   1.439       .  S
C420        C421   1.401       .  A
C420        H425   1.084       .  S
C421        C422   1.410       .  A
C422        N423   1.438       .  S
N423        H427   1.046       .  S
N423        H428   1.046       .  S
N426        H429   1.045       .  S
N426        H430   1.046       .  S
C431        C432   1.402       .  A
C431        C436   1.406       .  A
C431        H438   1.084       .  S
C432        C433   1.411       .  A
C433        C434   1.404       .  A
C433        N440   1.439       .  S
C434        C435   1.405       .  A
C434        H439   1.083       .  S
C435        C436   1.414       .  A
C436        N437   1.438       .  S
N437        H441   1.046       .  S
N437        H442   1.046       .  S
N440        H443   1.045       .  S
N440        H444   1.046       .  S
C445        C446   1.408       .  A
C445        C450   1.401       .  A
C445        H452   1.084       .  S
C446        C447   1.419       .  A
C447        C448   1.402       .  A
C447        N454   1.437       .  S
C448        C449   1.398       .  A
C448        H453   1.085       .  S
C449        C450   1.413       .  A
C450        N451   1.439       .  S
N451        H455   1.045       .  S
N451        H456   1.043       .  S
N454        H457   1.046       .  S
N454        H458   1.046       .  S
C459        C460   1.403       .  A
C459        C464   1.404       .  A
C459        H466   1.084       .  S
C460        C461   1.411       .  A
C461        C462   1.403       .  A
C461        N468   1.439       .  S
C462        C463   1.404       .  A
C462        H467   1.084       .  S
C463        C464   1.412       .  A
C464        N465   1.438       .  S
N465        H469   1.046       .  S
N465        H470   1.046       .  S
N468        H471   1.045       .  S
N468        H472   1.046       .  S
C473        C474   1.406       .  A
C473        C478   1.396       .  A
C473        H480   1.083       .  S
C474        C475   1.417       .  A
C475        C476   1.407       .  A
C475        N482   1.438       .  S
C476        C477   1.400       .  A
C476        H481   1.084       .  S
C477        C478   1.410       .  A
C478        N479   1.433       .  S
N479        H483   1.044       .  S
N479        H484   1.046       .  S
N482        H485   1.046       .  S
N482        H486   1.046       .  S
C487        C488   1.401       .  A
C487        C492   1.407       .  A
C487        H494   1.084       .  S
C488        C489   1.414       .  A
C489        C490   1.401       .  A
C489        N496   1.439       .  S
C490        C491   1.408       .  A
C490        H495   1.084       .  S
C491        C492   1.417       .  A
C492        N493   1.438       .  S
N493        H497   1.046       .  S
N493        H498   1.046       .  S
N496        H499   1.043       .  S
N496        H500   1.045       .  S
C501        C502   1.401       .  A
C501        C506   1.406       .  A
C501        H508   1.084       .  S
C502        C503   1.411       .  A
C503        C504   1.397       .  A
C503        N510   1.434       .  S
C504        C505   1.405       .  A
C504        H509   1.084       .  S
C505        C506   1.414       .  A
C506        N507   1.437       .  S
N507        H511   1.046       .  S
N507        H512   1.046       .  S
N510        H513   1.046       .  S
N510        H514   1.045       .  S
C515        C516   1.401       .  A
C515        C520   1.400       .  A
C515        H522   1.084       .  S
C516        C517   1.412       .  A
C517        C518   1.408       .  A
C517        N524   1.438       .  S
C518        C519   1.405       .  A
C518        H523   1.084       .  S
C519        C520   1.412       .  A
C520        N521   1.438       .  S
N521        H525   1.046       .  S
N521        H526   1.046       .  S
N524        H527   1.045       .  S
N524        H528   1.046       .  S
C529        C530   1.401       .  A
C529        C534   1.406       .  A
C529        H536   1.084       .  S
C530        C531   1.411       .  A
C531        C532   1.397       .  A
C531        N538   1.434       .  S
C532        C533   1.407       .  A
C532        H537   1.084       .  S
C533        C534   1.415       .  A
C534        N535   1.437       .  S
N535        H539   1.046       .  S
N535        H540   1.046       .  S
N538        H541   1.046       .  S
N538        H542   1.044       .  S
C543        C544   1.407       .  A
C543        C548   1.403       .  A
C543        H550   1.082       .  S
C544        C545   1.417       .  A
C545        C546   1.407       .  A
C545        N552   1.438       .  S
C546        C547   1.400       .  A
C546        H551   1.084       .  S
C547        C548   1.407       .  A
C548        N549   1.439       .  S
N549        H553   1.046       .  S
N549        H554   1.046       .  S
N552        H555   1.045       .  S
N552        H556   1.046       .  S
C557        C558   1.402       .  A
C557        C562   1.404       .  A
C557        H564   1.084       .  S
C558        C559   1.412       .  A
C559        C560   1.399       .  A
C559        N566   1.433       .  S
C560        C561   1.404       .  A
C560        H565   1.084       .  S
C561        C562   1.414       .  A
C562        N563   1.439       .  S
N563        H567   1.046       .  S
N563        H568   1.046       .  S
N566        H569   1.046       .  S
N566        H570   1.044       .  S
