geometry optimzed in LAMMPS
_audit_creation_date              2020-12-01 
_audit_creation_method            'lammps2cif' 
_symmetry_space_group_name_H-M    'P1' 
_symmetry_Int_Tables_number       1 
_symmetry_cell_setting            triclinic 
loop_ 
_symmetry_equiv_pos_as_xyz 
  x,y,z 
_cell_length_a                    39.28968687 
_cell_length_b                    39.289495761067606 
_cell_length_c                    39.28969514095493 
_cell_angle_alpha                 89.99999155944366 
_cell_angle_beta                  89.99960061804809 
_cell_angle_gamma                 90.00042238133264 
loop_ 
_atom_site_label 
_atom_site_type_symbol 
_atom_site_fract_x 
_atom_site_fract_y 
_atom_site_fract_z 
_atom_site_charge 
C1          C  0.68887761  0.64648882  0.81120072     0.83400
N2          N  0.70303345  0.66067281  0.83934743    -0.74900
C3          C  0.68887633  0.68882084  0.85352798     0.85900
N4          N  0.66072759  0.70297459  0.83934613    -0.74800
C5          C  0.64654612  0.68881622  0.81119942     0.86000
N6          N  0.66072897  0.66066831  0.79704458    -0.76600
C7          C  0.64653640  0.85067499  0.64933007     0.83400
N8          N  0.66071831  0.87882341  0.66348513    -0.74900
C9          C  0.68886539  0.89300538  0.64932785     0.85900
N10         N  0.70302091  0.87882343  0.62117990    -0.74800
C11         C  0.68886474  0.85067496  0.60699923     0.86000
N12         N  0.66071759  0.83651859  0.62118209    -0.76600
C13         C  0.85073851  0.68881743  0.60700894     0.83400
N14         N  0.83658378  0.66066950  0.62119215    -0.74900
C15         C  0.85074180  0.64648840  0.64933918     0.85900
N16         N  0.87889048  0.66067084  0.66349280    -0.74800
C17         C  0.89307101  0.68881886  0.64933533     0.86000
N18         N  0.87888714  0.70297431  0.62118828    -0.76600
C19         C  0.85074055  0.85068080  0.85351826     0.83400
N20         N  0.87888951  0.83652616  0.83933739    -0.74900
C21         C  0.89307041  0.85068135  0.81118865     0.85900
N22         N  0.87888666  0.87882742  0.79703065    -0.74800
C23         C  0.85073764  0.89300777  0.81118585     0.86000
N24         N  0.83658259  0.87882679  0.83933457    -0.76600
O25         O  0.81534200  0.77528347  0.94402696    -0.69700
O26         O  0.76427771  0.72422513  0.01649989    -0.70700
O27         O  0.76427806  0.72422358  0.94402855    -0.59300
O28         O  0.81534189  0.77528471  0.01649841    -0.67800
O29         O  0.77534141  0.81528879  0.01649814    -0.67300
O30         O  0.72427732  0.76422742  0.94402786    -0.58600
O31         O  0.72427704  0.76422900  0.01649909    -0.71100
O32         O  0.77534138  0.81528740  0.94402642    -0.69900
Cu33       Cu  0.79121837  0.74834577  0.98026344     1.04600
Cu34       Cu  0.74840091  0.79116672  0.98026287     1.04300
C35         C  0.80321505  0.80315798  0.93255225     0.96400
C36         C  0.73640366  0.73635426  0.02797350     0.95600
C37         C  0.73640415  0.73635220  0.93255460     0.87700
C38         C  0.80321504  0.80315960  0.02797231     0.94000
O39         O  0.05605136  0.76421280  0.68473732    -0.69700
O40         O  0.98358093  0.81528064  0.73579400    -0.70700
O41         O  0.05605272  0.81527453  0.73579884    -0.59300
O42         O  0.98357999  0.76421823  0.68473276    -0.67800
O43         O  0.98357420  0.72421615  0.72473552    -0.67300
O44         O  0.05604645  0.77527221  0.77580136    -0.58600
O45         O  0.98357482  0.77527855  0.77579674    -0.71100
O46         O  0.05604568  0.72421050  0.72473988    -0.69900
Cu47       Cu  0.01981648  0.79115502  0.70885727     1.04600
Cu48       Cu  0.01981004  0.74833592  0.75167687     1.04300
C49         C  0.06752245  0.73633769  0.69686618     0.96400
C50         C  0.97210376  0.80315363  0.76366758     0.95600
C51         C  0.06752404  0.80314542  0.76367374     0.87700
C52         C  0.97210294  0.73634475  0.69686043     0.94000
O53         O  0.77532763  0.98350511  0.77579189    -0.69700
O54         O  0.72425628  0.05597532  0.72473802    -0.70700
O55         O  0.72426411  0.98350430  0.72473237    -0.59300
O56         O  0.77531927  0.05597691  0.77579784    -0.67800
O57         O  0.81532060  0.05598476  0.73579424    -0.67300
O58         O  0.76426517  0.98351170  0.68472847    -0.58600
O59         O  0.76425754  0.05598273  0.68473437    -0.71100
O60         O  0.81532872  0.98351300  0.73578810    -0.69900
Cu61       Cu  0.74838349  0.01974007  0.75167357     1.04600
Cu62       Cu  0.79120145  0.01974836  0.70885286     1.04300
C63         C  0.80320280  0.97203521  0.76366188     0.96400
C64         C  0.73638219  0.06745247  0.69686396     0.95600
C65         C  0.73639216  0.97203416  0.69685652     0.87700
C66         C  0.80319191  0.06745520  0.76366976     0.94000
C67         C  0.68886888  0.64649310  0.14932692     0.83400
N68         N  0.66072072  0.66067396  0.16348282    -0.74900
C69         C  0.64654008  0.68882313  0.14932835     0.85900
N70         N  0.66072338  0.70298120  0.12118220    -0.74800
C71         C  0.68887174  0.68882601  0.10700055     0.86000
N72         N  0.70302665  0.66067677  0.12118091    -0.76600
C73         C  0.64652368  0.18880931  0.64932819     0.83400
N74         N  0.66070661  0.20296143  0.62117902    -0.74900
C75         C  0.68885406  0.18880268  0.60699932     0.85900
N76         N  0.70300858  0.16065586  0.62118463    -0.74800
C77         C  0.68885137  0.14647799  0.64933381     0.86000
N78         N  0.66070393  0.16066244  0.66348791    -0.76600
C79         C  0.14655415  0.68881140  0.64934168     0.83400
N80         N  0.16073675  0.66066384  0.66349751    -0.74900
C81         C  0.18888571  0.64648398  0.64934186     0.85900
N82         N  0.20304195  0.66066702  0.62119474    -0.74800
C83         C  0.18888502  0.68881462  0.60701319     0.86000
N84         N  0.16073607  0.70296876  0.62119459    -0.76600
C85         C  0.89306292  0.68881051  0.31120017     0.83400
N86         N  0.87887867  0.66066504  0.29704142    -0.74900
C87         C  0.85073035  0.64648357  0.31119694     0.85900
N88         N  0.83657621  0.66066300  0.33934688    -0.74800
C89         C  0.85073483  0.68880839  0.35353122     0.86000
N90         N  0.87888303  0.70296426  0.33935009    -0.76600
O91         O  0.05604071  0.81527526  0.22474388    -0.69700
O92         O  0.98356600  0.76421456  0.27580331    -0.70700
O93         O  0.05603690  0.76421515  0.27580736    -0.59300
O94         O  0.98356918  0.81527536  0.22474049    -0.67800
O95         O  0.98357102  0.77527200  0.18473906    -0.67300
O96         O  0.05603915  0.72421158  0.23580609    -0.58600
O97         O  0.98356827  0.72421119  0.23580182    -0.71100
O98         O  0.05604238  0.77527159  0.18474272    -0.69900
Cu99       Cu  0.01980313  0.79115360  0.25168215     1.04600
Cu100      Cu  0.01980524  0.74833316  0.20886401     1.04300
C101        C  0.06751614  0.80314623  0.19687050     0.96400
C102        C  0.97209297  0.73633960  0.26367541     0.95600
C103        C  0.06751131  0.73634034  0.26368084     0.87700
C104        C  0.97209655  0.80314671  0.19686593     0.94000
C105        C  0.85074171  0.85068032  0.10700606     0.83400
N106        N  0.83658625  0.87882781  0.12118911    -0.74900
C107        C  0.85074145  0.89300723  0.14933844     0.85900
N108        N  0.87888799  0.87882351  0.16349472    -0.74800
C109        C  0.89306924  0.85067593  0.14933742     0.86000
N110        N  0.87888828  0.83652229  0.12118799    -0.76600
C111        C  0.68887888  0.89300393  0.31119972     0.83400
N112        N  0.70303336  0.87881903  0.33934671    -0.74900
C113        C  0.68887479  0.85067108  0.35352619     0.85900
N114        N  0.66072607  0.83651811  0.33934320    -0.74800
C115        C  0.64654593  0.85067736  0.31119619     0.86000
N116        N  0.66073017  0.87882528  0.29704251    -0.76600
O117        O  0.81533892  0.98351526  0.22473602    -0.69700
O118        O  0.76426921  0.05598537  0.27579195    -0.70700
O119        O  0.76427790  0.98351351  0.27579882    -0.59300
O120        O  0.81532994  0.05598703  0.22472911    -0.67800
O121        O  0.77532692  0.05597841  0.18472774    -0.67300
O122        O  0.72427508  0.98350512  0.23579727    -0.58600
O123        O  0.72426626  0.05597687  0.23579055    -0.71100
O124        O  0.77533590  0.98350668  0.18473469    -0.69900
Cu125      Cu  0.79121252  0.01975058  0.25167244     1.04600
Cu126      Cu  0.74839261  0.01974141  0.20885414     1.04300
C127        C  0.80321171  0.97203712  0.19686311     0.96400
C128        C  0.73639343  0.06745501  0.26366349     0.95600
C129        C  0.73640472  0.97203504  0.26367237     0.87700
C130        C  0.80319995  0.06745716  0.19685415     0.94000
C131        C  0.35074301  0.85068369  0.60700688     0.83400
N132        N  0.37888890  0.83652553  0.62118974    -0.74900
C133        C  0.39306966  0.85067973  0.64933888     0.85900
N134        N  0.37888873  0.87882800  0.66349517    -0.74800
C135        C  0.35074278  0.89301182  0.64933795     0.86000
N136        N  0.33658769  0.87883181  0.62118888    -0.76600
O137        O  0.31533650  0.98351708  0.72473679    -0.69700
O138        O  0.26426334  0.05598374  0.77579400    -0.70700
O139        O  0.26427667  0.98351170  0.77580055    -0.59300
O140        O  0.31532332  0.05598825  0.72473049    -0.67800
O141        O  0.27531969  0.05597789  0.68472973    -0.67300
O142        O  0.22427299  0.98350100  0.73579989    -0.58600
O143        O  0.22425956  0.05597306  0.73579346    -0.71100
O144        O  0.27533279  0.98350645  0.68473615    -0.69900
Cu145      Cu  0.29120837  0.01975065  0.75167386     1.04600
Cu146      Cu  0.24838770  0.01973923  0.70885646     1.04300
C147        C  0.30320963  0.97203867  0.69686385     0.96400
C148        C  0.23638669  0.06745190  0.76366613     0.95600
C149        C  0.23640417  0.97203123  0.76367447     0.87700
C150        C  0.30319264  0.06745753  0.69685555     0.94000
C151        C  0.18888779  0.89299472  0.81120286     0.83400
N152        N  0.20304393  0.87881193  0.83935010    -0.74900
C153        C  0.18888778  0.85066334  0.85353091     0.85900
N154        N  0.16073959  0.83650794  0.83934916    -0.74800
C155        C  0.14655778  0.85066514  0.81120199     0.86000
N156        N  0.16073970  0.87881354  0.79704693    -0.76600
C157        C  0.35074442  0.68879969  0.85353874     0.83400
N158        N  0.33658946  0.66065129  0.83935663    -0.74900
C159        C  0.35074544  0.64647140  0.81120786     0.85900
N160        N  0.37889175  0.66065543  0.79705104    -0.74800
C161        C  0.39307234  0.68880395  0.81120738     0.86000
N162        N  0.37889075  0.70295809  0.83935627    -0.76600
O163        O  0.26428381  0.81526279  0.94403895    -0.69700
O164        O  0.31533935  0.76419966  0.01651264    -0.70700
O165        O  0.31534333  0.76419929  0.94404201    -0.59300
O166        O  0.26428002  0.81526308  0.01651057    -0.67800
O167        O  0.22427575  0.77526223  0.01650886    -0.67300
O168        O  0.27533919  0.72419828  0.94404004    -0.58600
O169        O  0.27533531  0.72419854  0.01651117    -0.71100
O170        O  0.22427967  0.77526183  0.94403724    -0.69900
Cu171      Cu  0.29122006  0.79113955  0.98027611     1.04600
Cu172      Cu  0.24839888  0.74832183  0.98027429     1.04300
C173        C  0.23640970  0.80313562  0.93256350     0.96400
C174        C  0.30320963  0.73632569  0.02798611     0.95600
C175        C  0.30321480  0.73632525  0.93256760     0.87700
C176        C  0.23640465  0.80313607  0.02798353     0.94000
C177        C  0.85071921  0.35066948  0.60700518     0.83400
N178        N  0.87886657  0.33651403  0.62118820    -0.74900
C179        C  0.89304912  0.35067295  0.64933419     0.85900
N180        N  0.87886865  0.37882308  0.66348703    -0.74800
C181        C  0.85072132  0.39300413  0.64932983     0.86000
N182        N  0.83656449  0.37881961  0.62118387    -0.76600
O183        O  0.98355117  0.26421449  0.77580129    -0.69700
O184        O  0.05602202  0.31527848  0.72474134    -0.70700
O185        O  0.98355086  0.31527678  0.72474015    -0.59300
O186        O  0.05602260  0.26421533  0.77580186    -0.67800
O187        O  0.05602342  0.22421381  0.73579858    -0.67300
O188        O  0.98355240  0.27527480  0.68473730    -0.58600
O189        O  0.05602331  0.27527683  0.68473810    -0.71100
O190        O  0.98355193  0.22421257  0.73579833    -0.69900
Cu191      Cu  0.01978662  0.29115469  0.75167968     1.04600
Cu192      Cu  0.01978783  0.24833605  0.70885960     1.04300
C193        C  0.97207743  0.23634022  0.76367268     0.96400
C194        C  0.06749639  0.30315144  0.69686675     0.95600
C195        C  0.97207776  0.30314883  0.69686540     0.87700
C196        C  0.06749711  0.23634138  0.76367316     0.94000
C197        C  0.85071315  0.14648833  0.81119749     0.83400
N198        N  0.83655543  0.16067204  0.83934353    -0.74900
C199        C  0.85071136  0.18882067  0.85352440     0.85900
N200        N  0.87886058  0.20297513  0.83934365    -0.74800
C201        C  0.89304393  0.18881700  0.81119764     0.86000
N202        N  0.87886232  0.16066846  0.79704250    -0.76600
C203        C  0.68885701  0.39301194  0.81118744     0.83400
N204        N  0.70301155  0.37883253  0.83933706    -0.74900
C205        C  0.68885480  0.35068564  0.85352042     0.85900
N206        N  0.66070772  0.33652823  0.83933867    -0.74800
C207        C  0.64652740  0.35068190  0.81118907     0.86000
N208        N  0.66070991  0.37882881  0.79703131    -0.76600
O209        O  0.72425159  0.27528865  0.01649894    -0.69700
O210        O  0.77530979  0.22422482  0.94402683    -0.70700
O211        O  0.77531153  0.22422558  0.01649820    -0.59300
O212        O  0.72425016  0.27528816  0.94402784    -0.67800
O213        O  0.76425402  0.31528947  0.94402637    -0.67300
O214        O  0.81531532  0.26422693  0.01649661    -0.58600
O215        O  0.81531377  0.26422599  0.94402544    -0.71100
O216        O  0.76425535  0.31529006  0.01649782    -0.69900
Cu217      Cu  0.74837223  0.24834846  0.98026305     1.04600
Cu218      Cu  0.79119313  0.29116659  0.98026146     1.04300
C219        C  0.73638083  0.30316272  0.02797254     0.96400
C220        C  0.80318443  0.23635180  0.93255210     0.95600
C221        C  0.80318658  0.23635294  0.02797120     0.87700
C222        C  0.73637911  0.30316203  0.93255317     0.94000
C223        C  0.68885206  0.39301212  0.14933762     0.83400
N224        N  0.70300900  0.37883303  0.12118885    -0.74900
C225        C  0.68885402  0.35068548  0.10700502     0.85900
N226        N  0.66070661  0.33652728  0.12118546    -0.74800
C227        C  0.64652398  0.35068063  0.14933428     0.86000
N228        N  0.66070467  0.37882824  0.16349244    -0.76600
C229        C  0.39306375  0.68880679  0.14934798     0.83400
N230        N  0.37888189  0.70296035  0.12119909    -0.74900
C231        C  0.35073480  0.68880207  0.10701823     0.85900
N232        N  0.33657965  0.66065455  0.12120168    -0.74800
C233        C  0.35073582  0.64647518  0.14935049     0.86000
N234        N  0.37888292  0.66065913  0.16350580    -0.76600
C235        C  0.68886133  0.18881269  0.35351891     0.83400
N236        N  0.66071318  0.20296844  0.33933791    -0.74900
C237        C  0.64653166  0.18881301  0.31118972     0.85900
N238        N  0.66071387  0.16066576  0.29703264    -0.74800
C239        C  0.68886201  0.14648426  0.31118800     0.86000
N240        N  0.70301779  0.16066551  0.33933613    -0.76600
C241        C  0.35071629  0.18882596  0.35353071     0.83400
N242        N  0.33655914  0.16067736  0.33935108    -0.74900
C243        C  0.35071577  0.14649223  0.31120522     0.85900
N244        N  0.37886510  0.16067097  0.29704914    -0.74800
C245        C  0.39304795  0.18881952  0.31120302     0.86000
N246        N  0.37886566  0.20297906  0.33934890    -0.76600
C247        C  0.18887927  0.89299772  0.14934019     0.83400
N248        N  0.16073130  0.87881709  0.16349708    -0.74900
C249        C  0.14654930  0.85066816  0.14934302     0.85900
N250        N  0.16073100  0.83651030  0.12119600    -0.74800
C251        C  0.18887895  0.85066532  0.10701325     0.86000
N252        N  0.20303533  0.87881424  0.12119318    -0.76600
C253        C  0.35073835  0.89301214  0.31119864     0.83400
N254        N  0.33658078  0.87883198  0.33934648    -0.74900
C255        C  0.35073529  0.85068418  0.35352988     0.85900
N256        N  0.37888320  0.83652687  0.33934967    -0.74800
C257        C  0.39306651  0.85068128  0.31120181     0.86000
N258        N  0.37888618  0.87882906  0.29704395    -0.76600
O259        O  0.22425796  0.05597536  0.22474662    -0.69700
O260        O  0.27533157  0.98350842  0.27580148    -0.70700
O261        O  0.27532030  0.05597991  0.27580695    -0.59300
O262        O  0.22426948  0.98350363  0.22474085    -0.67800
O263        O  0.26427137  0.98351302  0.18473783    -0.67300
O264        O  0.31532214  0.05598899  0.23580388    -0.58600
O265        O  0.31533354  0.98351763  0.23579853    -0.71100
O266        O  0.26425971  0.05598485  0.18474347    -0.69900
Cu267      Cu  0.24838635  0.01974144  0.25168243     1.04600
Cu268      Cu  0.29120506  0.01975151  0.20886247     1.04300
C269        C  0.23638389  0.06745358  0.19687305     0.96400
C270        C  0.30320753  0.97203977  0.26367224     0.95600
C271        C  0.30319279  0.06745906  0.26367923     0.87700
C272        C  0.23639909  0.97203346  0.19686561     0.94000
C273        C  0.39304932  0.18881561  0.64933063     0.83400
N274        N  0.37886906  0.20297475  0.62118370    -0.74900
C275        C  0.35072057  0.18882142  0.60700070     0.85900
N276        N  0.33656229  0.16067331  0.62118009    -0.74800
C277        C  0.35071685  0.14648862  0.64932705     0.86000
N278        N  0.37886532  0.16066762  0.66348438    -0.76600
C279        C  0.18885475  0.35068455  0.60701220     0.83400
N280        N  0.20301182  0.37883099  0.62119603    -0.74900
C281        C  0.18885614  0.39301095  0.64934491     0.85900
N282        N  0.16070786  0.37882898  0.66349998    -0.74800
C283        C  0.14652511  0.35068248  0.64934175     0.86000
N284        N  0.16070652  0.33652821  0.62119285    -0.76600
C285        C  0.18884206  0.35068721  0.35353897     0.83400
N286        N  0.20299699  0.37883463  0.33935521    -0.74900
C287        C  0.18883996  0.39301424  0.31120704     0.85900
N288        N  0.16069236  0.37883065  0.29705263    -0.74800
C289        C  0.14651164  0.35068322  0.31121083     0.86000
N290        N  0.16069440  0.33652915  0.33935903    -0.76600
C291        C  0.85071770  0.14649236  0.14932596     0.83400
N292        N  0.87886461  0.16067508  0.16348264    -0.74900
C293        C  0.89304466  0.18882486  0.14932858     0.85900
N294        N  0.87886217  0.20298200  0.12118172    -0.74800
C295        C  0.85071520  0.18882487  0.10699919     0.86000
N296        N  0.83656084  0.16067504  0.12117910    -0.76600
C297        C  0.85071613  0.35068379  0.35353319     0.83400
N298        N  0.87886331  0.33652904  0.33934902    -0.74900
C299        C  0.89304293  0.35068638  0.31120080     0.85900
N300        N  0.87885971  0.37883439  0.29704659    -0.74800
C301        C  0.85071250  0.39301481  0.31120510     0.86000
N302        N  0.83655846  0.37883176  0.33935327    -0.76600
O303        O  0.98354188  0.22422051  0.22473773    -0.69700
O304        O  0.05601054  0.27527811  0.27580738    -0.70700
O305        O  0.98354000  0.27528213  0.27579970    -0.59300
O306        O  0.05601316  0.22421595  0.22474591    -0.67800
O307        O  0.05602013  0.26421827  0.18474339    -0.67300
O308        O  0.98354655  0.31528470  0.23579738    -0.58600
O309        O  0.05601711  0.31528044  0.23580481    -0.71100
O310        O  0.98354901  0.26422312  0.18473547    -0.69900
Cu311      Cu  0.01977608  0.24834070  0.25168111     1.04600
Cu312      Cu  0.01978347  0.29116007  0.20886175     1.04300
C313        C  0.97207194  0.23634932  0.19686216     0.96400
C314        C  0.06748696  0.30315218  0.26368056     0.95600
C315        C  0.97206943  0.30315744  0.26367088     0.87700
C316        C  0.06749097  0.23634319  0.19687272     0.94000
C317        C  0.18886876  0.64648604  0.31121154     0.83400
N318        N  0.16072049  0.66066690  0.29705612    -0.74900
C319        C  0.14653880  0.68881499  0.31121185     0.85900
N320        N  0.16072122  0.70297212  0.33935876    -0.74800
C321        C  0.18886955  0.68881689  0.35353989     0.86000
N322        N  0.20302547  0.66066876  0.33935842    -0.76600
C323        C  0.18884801  0.18880845  0.10701753     0.83400
N324        N  0.16070126  0.20296568  0.12120011    -0.74900
C325        C  0.14652111  0.18881193  0.14934995     0.85900
N326        N  0.16070335  0.16066480  0.16350722    -0.74800
C327        C  0.18885016  0.14648189  0.14935022     0.86000
N328        N  0.20300454  0.16066146  0.12120046    -0.76600
C329        C  0.39304042  0.35066833  0.14934228     0.83400
N330        N  0.37885841  0.33651050  0.12119552    -0.74900
C331        C  0.35070900  0.35066400  0.10701476     0.85900
N332        N  0.33655168  0.37881143  0.12119649    -0.74800
C333        C  0.35070802  0.39299498  0.14934323     0.86000
N334        N  0.37885744  0.37881577  0.16349813    -0.76600
C335        C  0.18885569  0.18880550  0.85352686     0.83400
N336        N  0.16070863  0.20296367  0.83934600    -0.74900
C337        C  0.14652722  0.18881092  0.81119639     0.85900
N338        N  0.16070851  0.16066400  0.79703771    -0.74800
C339        C  0.18885567  0.14648017  0.81119282     0.86000
N340        N  0.20301124  0.16065873  0.83934241    -0.76600
C341        C  0.35071919  0.39299122  0.81120951     0.83400
N342        N  0.33656363  0.37880717  0.83935641    -0.74900
C343        C  0.35072019  0.35065831  0.85353584     0.85900
N344        N  0.37886819  0.33650402  0.83935258    -0.74800
C345        C  0.39304949  0.35066265  0.81120569     0.86000
N346        N  0.37886708  0.37881136  0.79705203    -0.76600
O347        O  0.27531145  0.31526278  0.01650830    -0.69700
O348        O  0.22425224  0.26420027  0.94403571    -0.70700
O349        O  0.22424787  0.26420255  0.01650709    -0.59300
O350        O  0.27531592  0.31526017  0.94403667    -0.67800
O351        O  0.31531696  0.27525665  0.94404026    -0.67300
O352        O  0.26424885  0.22419895  0.01651054    -0.58600
O353        O  0.26425306  0.22419654  0.94403867    -0.71100
O354        O  0.31531233  0.27525913  0.01651180    -0.69900
Cu355      Cu  0.24837340  0.29113992  0.98027181     1.04600
Cu356      Cu  0.29119117  0.24831927  0.98027541     1.04300
C357        C  0.30318459  0.30313428  0.02798434     0.96400
C358        C  0.23638000  0.23632538  0.93256271     0.95600
C359        C  0.23637448  0.23632838  0.02798292     0.87700
C360        C  0.30319054  0.30313096  0.93256458     0.94000
O361        O  0.31531519  0.48349898  0.22474619    -0.69700
O362        O  0.26426411  0.55597647  0.27581036    -0.70700
O363        O  0.26425169  0.48350555  0.27580643    -0.59300
O364        O  0.31532782  0.55597064  0.22475026    -0.67800
O365        O  0.27532680  0.55597904  0.18474688    -0.67300
O366        O  0.22425066  0.48351378  0.23580303    -0.58600
O367        O  0.22426322  0.55598476  0.23580686    -0.71100
O368        O  0.27531419  0.48350736  0.18474284    -0.69900
Cu369      Cu  0.29119819  0.51973759  0.25168676     1.04600
Cu370      Cu  0.24838037  0.51974655  0.20886635     1.04300
C371        C  0.30318613  0.47202818  0.19687103     0.96400
C372        C  0.23639188  0.56745513  0.26368232     0.95600
C373        C  0.23637560  0.47203703  0.26367738     0.87700
C374        C  0.30320261  0.56744797  0.19687626     0.94000
O375        O  0.55602396  0.22421239  0.23579361    -0.69700
O376        O  0.48354994  0.27527376  0.18473654    -0.70700
O377        O  0.55602136  0.27527480  0.18473240    -0.59300
O378        O  0.48355247  0.22421212  0.23579821    -0.67800
O379        O  0.48355480  0.26421463  0.27580057    -0.67300
O380        O  0.55602313  0.31527684  0.22473522    -0.58600
O381        O  0.48355156  0.31527615  0.22473898    -0.71100
O382        O  0.55602608  0.26421454  0.27579627    -0.69900
Cu383      Cu  0.51978689  0.24833485  0.20885671     1.04600
Cu384      Cu  0.51978899  0.29115400  0.25167625     1.04300
C385        C  0.56749946  0.23634025  0.26366732     0.96400
C386        C  0.47207612  0.30314784  0.19686535     0.95600
C387        C  0.56749582  0.30314924  0.19686017     0.87700
C388        C  0.47207995  0.23634030  0.26367316     0.94000
O389        O  0.31531946  0.26423007  0.51650245    -0.69700
O390        O  0.26425222  0.31529155  0.44403576    -0.70700
O391        O  0.26425604  0.31528994  0.51650656    -0.59300
O392        O  0.31531605  0.26423187  0.44403153    -0.67800
O393        O  0.27531489  0.22422786  0.44403281    -0.67300
O394        O  0.22425491  0.27528588  0.51650760    -0.58600
O395        O  0.22425130  0.27528726  0.44403741    -0.71100
O396        O  0.27531822  0.22422611  0.51650354    -0.69900
Cu397      Cu  0.29119443  0.29116946  0.48026899     1.04600
Cu398      Cu  0.24837648  0.24834831  0.48027041     1.04300
C399        C  0.30319286  0.23635472  0.52797601     0.96400
C400        C  0.23637745  0.30316266  0.43256374     0.95600
C401        C  0.23638239  0.30316067  0.52798129     0.87700
C402        C  0.30318850  0.23635705  0.43255790     0.94000
O403        O  0.22427341  0.76422089  0.44403971    -0.69700
O404        O  0.27533863  0.81528417  0.51650693    -0.70700
O405        O  0.27533350  0.81528480  0.44403584    -0.59300
O406        O  0.22427880  0.76421997  0.51651067    -0.67800
O407        O  0.26428271  0.72421929  0.51650729    -0.67300
O408        O  0.31533722  0.77528394  0.44403277    -0.58600
O409        O  0.31534249  0.77528343  0.51650345    -0.71100
O410        O  0.26427713  0.72422004  0.44403613    -0.69900
Cu411      Cu  0.24839756  0.79116089  0.48027345     1.04600
Cu412      Cu  0.29121841  0.74834330  0.48026975     1.04300
C413        C  0.23640138  0.73634691  0.43256477     0.96400
C414        C  0.30321430  0.80315730  0.52797842     0.95600
C415        C  0.30320764  0.80315805  0.43256002     0.87700
C416        C  0.23640859  0.73634585  0.52798331     0.94000
O417        O  0.81532060  0.27527319  0.44403055    -0.69700
O418        O  0.76425952  0.22420260  0.51649668    -0.70700
O419        O  0.76426082  0.22420876  0.44402533    -0.59300
O420        O  0.81531949  0.27526670  0.51650151    -0.67800
O421        O  0.77531565  0.31526741  0.51650461    -0.67300
O422        O  0.72425691  0.26420942  0.44402826    -0.58600
O423        O  0.72425566  0.26420337  0.51649921    -0.71100
O424        O  0.77531648  0.31527369  0.44403361    -0.69900
Cu425      Cu  0.79119862  0.24832932  0.48026338     1.04600
Cu426      Cu  0.74837758  0.29114685  0.48026658     1.04300
C427        C  0.80319165  0.30314817  0.43255913     0.96400
C428        C  0.73638442  0.23632855  0.52797105     0.95600
C429        C  0.73638620  0.23633647  0.43255208     0.87700
C430        C  0.80319052  0.30313986  0.52797747     0.94000
O431        O  0.27532559  0.48350400  0.77581104    -0.69700
O432        O  0.22427724  0.55598153  0.72474577    -0.70700
O433        O  0.22426515  0.48351041  0.72474848    -0.59300
O434        O  0.27533741  0.55597535  0.77580839    -0.67800
O435        O  0.31534096  0.55596780  0.73580697    -0.67300
O436        O  0.26426862  0.48350279  0.68474699    -0.58600
O437        O  0.26428065  0.55597410  0.68474423    -0.71100
O438        O  0.31532895  0.48349643  0.73580945    -0.69900
Cu439      Cu  0.24839290  0.51974311  0.75168684     1.04600
Cu440      Cu  0.29121335  0.51973499  0.70886846     1.04300
C441        C  0.30319840  0.47202538  0.76368397     0.96400
C442        C  0.23640770  0.56745253  0.69687117     0.95600
C443        C  0.23639193  0.47203385  0.69687468     0.87700
C444        C  0.30321398  0.56744449  0.76368065     0.94000
O445        O  0.76425544  0.48351248  0.18473708    -0.69700
O446        O  0.81532213  0.55598337  0.23579416    -0.70700
O447        O  0.81531500  0.48351254  0.23580023    -0.59300
O448        O  0.76426259  0.55598385  0.18473076    -0.67800
O449        O  0.72425858  0.55599064  0.22473170    -0.67300
O450        O  0.77531125  0.48351907  0.27580145    -0.58600
O451        O  0.77531817  0.55599024  0.27579517    -0.71100
O452        O  0.72425144  0.48351906  0.22473803    -0.69900
Cu453      Cu  0.79119720  0.51974780  0.20885715     1.04600
Cu454      Cu  0.74837622  0.51975498  0.25167502     1.04300
C455        C  0.73637959  0.47204182  0.19686507     0.96400
C456        C  0.80319437  0.56746033  0.26366738     0.95600
C457        C  0.80318519  0.47204219  0.26367534     0.87700
C458        C  0.73638888  0.56746123  0.19685685     0.94000
O459        O  0.48355481  0.22421033  0.72473380    -0.69700
O460        O  0.55602715  0.27527421  0.77579272    -0.70700
O461        O  0.48355600  0.27527008  0.77579752    -0.59300
O462        O  0.55602562  0.22421335  0.72473000    -0.67800
O463        O  0.55602241  0.26421668  0.68472846    -0.67300
O464        O  0.48355164  0.31527397  0.73579655    -0.58600
O465        O  0.55602296  0.31527774  0.73579139    -0.71100
O466        O  0.48355161  0.26421426  0.68473284    -0.69900
Cu467      Cu  0.51979104  0.24833352  0.75167198     1.04600
Cu468      Cu  0.51978705  0.29115419  0.70885392     1.04300
C469        C  0.47207930  0.23633889  0.69686040     0.96400
C470        C  0.56749904  0.30314968  0.76366467     0.95600
C471        C  0.47207994  0.30314422  0.76367127     0.87700
C472        C  0.56749747  0.23634213  0.69685510     0.94000
O473        O  0.55603537  0.76421971  0.18473360    -0.69700
O474        O  0.48356664  0.81527908  0.23580013    -0.70700
O475        O  0.55603793  0.81528194  0.23579497    -0.59300
O476        O  0.48356436  0.76421597  0.18473979    -0.67800
O477        O  0.48356891  0.72421425  0.22474291    -0.67300
O478        O  0.55604149  0.77527985  0.27579771    -0.58600
O479        O  0.48357039  0.77527750  0.27580340    -0.71100
O480        O  0.55604011  0.72421777  0.22473651    -0.69900
Cu481      Cu  0.51980089  0.79115763  0.20885867     1.04600
Cu482      Cu  0.51980535  0.74833896  0.25167860     1.04300
C483        C  0.56751133  0.73634599  0.19686095     0.96400
C484        C  0.47209488  0.80315131  0.26367554     0.95600
C485        C  0.56751397  0.80315450  0.26366865     0.87700
C486        C  0.47209257  0.73634109  0.19686923     0.94000
O487        O  0.81533355  0.76421412  0.51650432    -0.69700
O488        O  0.76427246  0.81526996  0.44402952    -0.70700
O489        O  0.76427013  0.81527379  0.51650040    -0.59300
O490        O  0.81533541  0.76420989  0.44403363    -0.67800
O491        O  0.77533404  0.72420605  0.44403506    -0.67300
O492        O  0.72426880  0.77526990  0.51650144    -0.58600
O493        O  0.72427106  0.77526621  0.44403052    -0.71100
O494        O  0.77533244  0.72421009  0.51650612    -0.69900
Cu495      Cu  0.79121128  0.79115044  0.48026692     1.04600
Cu496      Cu  0.74839313  0.74832953  0.48026839     1.04300
C497        C  0.80320635  0.73633976  0.52797955     0.96400
C498        C  0.73639871  0.80314060  0.43255563     0.95600
C499        C  0.73639557  0.80314548  0.52797390     0.87700
C500        C  0.80320839  0.73633438  0.43256116     0.94000
O501        O  0.77533623  0.55598843  0.68473480    -0.69700
O502        O  0.72426488  0.48351753  0.73578867    -0.70700
O503        O  0.72427359  0.55598907  0.73579570    -0.59300
O504        O  0.77532773  0.48351675  0.68472775    -0.67800
O505        O  0.81532922  0.48350882  0.72473068    -0.67300
O506        O  0.76427519  0.55598102  0.77579853    -0.58600
O507        O  0.76426654  0.48350941  0.77579141    -0.71100
O508        O  0.81533786  0.55598045  0.72473757    -0.69900
Cu509      Cu  0.74839214  0.51975328  0.70885318     1.04600
Cu510      Cu  0.79121067  0.51974464  0.75167303     1.04300
C511        C  0.80321166  0.56745835  0.69686418     0.96400
C512        C  0.73639100  0.47203967  0.76366211     0.95600
C513        C  0.73640236  0.56745904  0.76367130     0.87700
C514        C  0.80320041  0.47203856  0.69685522     0.94000
O515        O  0.48357021  0.76421150  0.77580337    -0.69700
O516        O  0.55603895  0.81527404  0.72473815    -0.70700
O517        O  0.48356837  0.81527371  0.72474165    -0.59300
O518        O  0.55604097  0.76421278  0.77580011    -0.67800
O519        O  0.55603992  0.72421000  0.73579800    -0.67300
O520        O  0.48356665  0.77527127  0.68473921    -0.58600
O521        O  0.55603731  0.77527141  0.68473587    -0.71100
O522        O  0.48356890  0.72420903  0.73580094    -0.69900
Cu523      Cu  0.51980465  0.79115145  0.75167935     1.04600
Cu524      Cu  0.51980312  0.74833188  0.70886004     1.04300
C525        C  0.47209628  0.73633670  0.76367600     0.96400
C526        C  0.56751137  0.80314617  0.69686307     0.94000
C527        C  0.47209382  0.80314606  0.69686748     0.87700
C528        C  0.56751460  0.73633840  0.76367187     0.94000
C529        C  0.33491442  0.33485019  0.88247356    -0.10100
C530        C  0.32084890  0.32078582  0.90586763    -0.11600
C531        C  0.42198823  0.33485911  0.79539757    -0.10100
C532        C  0.44538281  0.32079782  0.78133021    -0.11600
C533        C  0.33491283  0.42193077  0.79540560    -0.10100
C534        C  0.32085027  0.44532630  0.78134153    -0.11600
C535        C  0.21872512  0.21867007  0.90586392    -0.10100
C536        C  0.20466128  0.20460801  0.88246765    -0.11600
C537        C  0.33490328  0.33485636  0.07807673    -0.10100
C538        C  0.32083974  0.32079100  0.05468218    -0.11600
C539        C  0.32083868  0.44532892  0.17921385    -0.10100
C540        C  0.33490144  0.42193366  0.16514907    -0.11600
C541        C  0.44537715  0.32080295  0.17921086    -0.10100
C542        C  0.42198091  0.33486511  0.16514732    -0.11600
C543        C  0.20465268  0.20461216  0.07807692    -0.10100
C544        C  0.21871703  0.21867437  0.05468093    -0.11600
C545        C  0.20467495  0.61754765  0.29540527    -0.10100
C546        C  0.21873841  0.59415319  0.28134004    -0.11600
C547        C  0.20467702  0.70462439  0.38247678    -0.10100
C548        C  0.21874321  0.71868967  0.40586959    -0.11600
C549        C  0.09418878  0.21868508  0.17921914    -0.10100
C550        C  0.11758322  0.20461920  0.16515610    -0.11600
C551        C  0.92197994  0.33488091  0.29539168    -0.10100
C552        C  0.94537308  0.32081582  0.28132595    -0.11600
C553        C  0.82083944  0.44534598  0.28133469    -0.10100
C554        C  0.83490425  0.42195264  0.29540011    -0.11600
C555        C  0.83491148  0.33487534  0.38247104    -0.10100
C556        C  0.82084767  0.32080801  0.40586420    -0.11600
C557        C  0.92198216  0.20463143  0.16513595    -0.10100
C558        C  0.94537577  0.21869470  0.17920284    -0.11600
C559        C  0.09418197  0.32080829  0.28133981    -0.10100
C560        C  0.11757457  0.33487433  0.29540544    -0.11600
C561        C  0.21871822  0.32081907  0.40586915    -0.10100
C562        C  0.20465064  0.33488259  0.38247648    -0.11600
C563        C  0.21871383  0.44534299  0.28133273    -0.10100
C564        C  0.20464639  0.42195087  0.29539807    -0.11600
C565        C  0.20466107  0.33487974  0.57807327    -0.10100
C566        C  0.21872603  0.32081614  0.55467875    -0.11600
C567        C  0.20466405  0.42194728  0.66515337    -0.10100
C568        C  0.21873142  0.44533945  0.67921852    -0.11600
C569        C  0.32085097  0.21869765  0.55467105    -0.10100
C570        C  0.33491556  0.20463109  0.57806379    -0.11600
C571        C  0.42198793  0.20461919  0.66513871    -0.10100
C572        C  0.44538228  0.21868237  0.67920444    -0.11600
C573        C  0.21872371  0.09415003  0.17921963    -0.10100
C574        C  0.20465707  0.11754393  0.16515675    -0.11600
C575        C  0.33493322  0.92195025  0.29539076    -0.10100
C576        C  0.32086763  0.94534390  0.28132650    -0.11600
C577        C  0.42200461  0.83487326  0.29539700    -0.10100
C578        C  0.44539846  0.82080749  0.28133294    -0.11600
C579        C  0.33492743  0.83487956  0.38246815    -0.10100
C580        C  0.32086237  0.82081540  0.40586251    -0.11600
C581        C  0.20468494  0.92193787  0.16514426    -0.10100
C582        C  0.21874704  0.94533401  0.17920824    -0.11600
C583        C  0.32084561  0.09415769  0.28133687    -0.10100
C584        C  0.33490888  0.11755295  0.29540104    -0.11600
C585        C  0.42198776  0.20462258  0.29539628    -0.10100
C586        C  0.44538294  0.21868489  0.28133064    -0.11600
C587        C  0.33490976  0.20463539  0.38246720    -0.10100
C588        C  0.32084487  0.21870106  0.40586059    -0.11600
C589        C  0.61759267  0.20461903  0.29538463    -0.10100
C590        C  0.59419764  0.21868380  0.28132172    -0.11600
C591        C  0.70466703  0.20461800  0.38245803    -0.10100
C592        C  0.71873099  0.21868145  0.40585336    -0.11600
C593        C  0.33493003  0.61753719  0.16515807    -0.10100
C594        C  0.32086350  0.59414355  0.17922199    -0.11600
C595        C  0.44539540  0.71868255  0.17921536    -0.10100
C596        C  0.42200141  0.70461551  0.16515287    -0.11600
C597        C  0.61758605  0.33487216  0.16513900    -0.10100
C598        C  0.59419208  0.32080617  0.17920306    -0.11600
C599        C  0.70465718  0.42195040  0.16514559    -0.10100
C600        C  0.71872181  0.44534461  0.17921019    -0.11600
C601        C  0.83490819  0.20463172  0.07806163    -0.10100
C602        C  0.82084302  0.21869631  0.05466790    -0.11600
C603        C  0.71872563  0.32081912  0.05467034    -0.10100
C604        C  0.70466107  0.33488217  0.07806548    -0.11600
C605        C  0.70465980  0.33488156  0.88246045    -0.10100
C606        C  0.71872348  0.32081810  0.90585570    -0.11600
C607        C  0.61758972  0.33487405  0.79538322    -0.10100
C608        C  0.59419593  0.32080760  0.78131972    -0.11600
C609        C  0.70466433  0.42194936  0.79537991    -0.10100
C610        C  0.71873110  0.44534301  0.78131609    -0.11600
C611        C  0.83490413  0.20462860  0.88246133    -0.10100
C612        C  0.82083975  0.21869436  0.90585501    -0.11600
C613        C  0.09419461  0.21868489  0.78132871    -0.10100
C614        C  0.11758904  0.20461918  0.79539177    -0.11600
C615        C  0.09419286  0.32080925  0.67921095    -0.10100
C616        C  0.11758684  0.33487530  0.66514707    -0.11600
C617        C  0.92198388  0.20462119  0.79539233    -0.10100
C618        C  0.94537950  0.21868418  0.78132815    -0.11600
C619        C  0.92198699  0.33486782  0.66514214    -0.10100
C620        C  0.94538091  0.32080461  0.67920841    -0.11600
C621        C  0.83491218  0.33486088  0.57806848    -0.10100
C622        C  0.82084685  0.32079570  0.55467499    -0.11600
C623        C  0.82085375  0.44534047  0.67919738    -0.10100
C624        C  0.83491638  0.42194475  0.66513334    -0.11600
C625        C  0.20468450  0.83485783  0.07807504    -0.10100
C626        C  0.21874844  0.82079275  0.05468061    -0.11600
C627        C  0.32086410  0.71866911  0.05468394    -0.10100
C628        C  0.33492826  0.70460581  0.07807892    -0.11600
C629        C  0.33493756  0.70460443  0.88247750    -0.10100
C630        C  0.32087197  0.71866841  0.90587148    -0.11600
C631        C  0.32087378  0.59413965  0.78133644    -0.10100
C632        C  0.33493964  0.61753306  0.79540100    -0.11600
C633        C  0.42200857  0.70461287  0.79540008    -0.10100
C634        C  0.44540108  0.71867919  0.78133405    -0.11600
C635        C  0.21875597  0.82079218  0.90586485    -0.10100
C636        C  0.20469313  0.83485673  0.88246962    -0.11600
C637        C  0.20466141  0.11754234  0.79538465    -0.10100
C638        C  0.21872709  0.09414834  0.78132053    -0.11600
C639        C  0.32084473  0.09415554  0.67919621    -0.10100
C640        C  0.33490855  0.11755016  0.66513122    -0.11600
C641        C  0.21875374  0.94533130  0.78133298    -0.10100
C642        C  0.20469280  0.92193480  0.79539794    -0.11600
C643        C  0.33493644  0.92194997  0.66514466    -0.10100
C644        C  0.32086997  0.94534332  0.67920881    -0.11600
C645        C  0.33493690  0.83487859  0.57806805    -0.10100
C646        C  0.32087177  0.82081418  0.55467417    -0.11600
C647        C  0.42200554  0.83487084  0.66514637    -0.10100
C648        C  0.44539795  0.82080391  0.67921131    -0.11600
C649        C  0.83491364  0.11755180  0.16513059    -0.10100
C650        C  0.82085216  0.09415576  0.17919567    -0.11600
C651        C  0.70466870  0.11754623  0.29538124    -0.10100
C652        C  0.71873461  0.09415209  0.28131766    -0.11600
C653        C  0.71875142  0.94533727  0.28133110    -0.10100
C654        C  0.70468723  0.92194256  0.29539574    -0.11600
C655        C  0.61760670  0.83487438  0.29538840    -0.10100
C656        C  0.59421178  0.82081139  0.28132329    -0.11600
C657        C  0.70467912  0.83486178  0.38246390    -0.10100
C658        C  0.71874257  0.82079602  0.40585794    -0.11600
C659        C  0.83493573  0.92194560  0.16514536    -0.10100
C660        C  0.82087038  0.94534002  0.17920898    -0.11600
C661        C  0.11760056  0.70462063  0.29540540    -0.10100
C662        C  0.09420701  0.71868452  0.28133930    -0.11600
C663        C  0.11761019  0.83486388  0.16514994    -0.10100
C664        C  0.09421471  0.82080135  0.17921495    -0.11600
C665        C  0.94540028  0.82080276  0.17920827    -0.10100
C666        C  0.92200663  0.83486794  0.16514348    -0.11600
C667        C  0.94539561  0.71868281  0.28133089    -0.10100
C668        C  0.92200125  0.70461724  0.29539455    -0.11600
C669        C  0.83492119  0.61754800  0.29538826    -0.10100
C670        C  0.82085368  0.59415589  0.28132311    -0.11600
C671        C  0.83492986  0.70461313  0.38247088    -0.10100
C672        C  0.82086550  0.71867740  0.40586528    -0.11600
C673        C  0.21875539  0.59415107  0.67921315    -0.10100
C674        C  0.20469240  0.61754568  0.66514788    -0.11600
C675        C  0.21875441  0.71868803  0.55468097    -0.10100
C676        C  0.20469097  0.70462212  0.57807532    -0.11600
C677        C  0.59419325  0.21868593  0.67919678    -0.10100
C678        C  0.61758636  0.20461913  0.66513262    -0.11600
C679        C  0.70466227  0.20460579  0.57806047    -0.10100
C680        C  0.71872805  0.21866988  0.55466652    -0.11600
C681        C  0.70467375  0.61755351  0.16513227    -0.10100
C682        C  0.71873594  0.59415865  0.17919782    -0.11600
C683        C  0.59420768  0.71869097  0.17920229    -0.10100
C684        C  0.61760164  0.70462823  0.16513542    -0.11600
C685        C  0.83490783  0.11754882  0.79539213    -0.10100
C686        C  0.82084534  0.09415350  0.78132730    -0.11600
C687        C  0.71872238  0.09414829  0.67920931    -0.10100
C688        C  0.70465668  0.11754114  0.66514381    -0.11600
C689        C  0.11761826  0.83486063  0.79539608    -0.10100
C690        C  0.09422260  0.82079878  0.78133096    -0.11600
C691        C  0.11761472  0.70461590  0.66514768    -0.10100
C692        C  0.09421978  0.71867997  0.67921159    -0.11600
C693        C  0.82087157  0.82081462  0.05467016    -0.10100
C694        C  0.83493615  0.83487686  0.07806582    -0.11600
C695        C  0.71874582  0.71869856  0.05467030    -0.10100
C696        C  0.70467962  0.70463384  0.07806378    -0.11600
C697        C  0.92201034  0.83487630  0.79538384    -0.10100
C698        C  0.94540583  0.82081153  0.78132133    -0.11600
C699        C  0.83492958  0.92194486  0.79537861    -0.10100
C700        C  0.82086260  0.94533841  0.78131539    -0.11600
C701        C  0.83493559  0.83487570  0.88245808    -0.10100
C702        C  0.82087152  0.82081257  0.90585383    -0.11600
C703        C  0.92201030  0.70462585  0.66513927    -0.10100
C704        C  0.94540527  0.71869007  0.67920318    -0.11600
C705        C  0.83493656  0.61754992  0.66514671    -0.10100
C706        C  0.82087106  0.59415549  0.67921050    -0.11600
C707        C  0.83492998  0.70462257  0.57807129    -0.10100
C708        C  0.82086351  0.71868533  0.55467725    -0.11600
C709        C  0.70467232  0.92194362  0.66513359    -0.10100
C710        C  0.71873707  0.94533744  0.67919855    -0.11600
C711        C  0.61759943  0.83486826  0.66513808    -0.10100
C712        C  0.59420659  0.82080319  0.67920472    -0.11600
C713        C  0.70467139  0.83486794  0.57806173    -0.10100
C714        C  0.71873743  0.82080286  0.55466883    -0.11600
C715        C  0.70468224  0.70462943  0.88246514    -0.10100
C716        C  0.71874699  0.71869534  0.90585847    -0.11600
C717        C  0.61760693  0.70461997  0.79539275    -0.10100
C718        C  0.59421215  0.71868274  0.78132766    -0.11600
C719        C  0.71874849  0.59415621  0.78132996    -0.10100
C720        C  0.70468470  0.61755039  0.79539536    -0.11600
loop_ 
_geom_bond_atom_site_label_1 
_geom_bond_atom_site_label_2 
_geom_bond_distance 
_geom_bond_site_symmetry_2 
_ccdc_geom_bond_type 
C1            N2   1.358       .  A
C1            N6   1.358       .  A
C1          C720   1.437       .  S
N2            C3   1.358       .  A
C3            N4   1.358       .  A
C3          C715   1.437       .  S
N4            C5   1.358       .  A
C5            N6   1.358       .  A
C5          C717   1.437       .  S
C7            N8   1.358       .  A
C7           N12   1.358       .  A
C7          C711   1.437       .  S
N8            C9   1.358       .  A
C9           N10   1.358       .  A
C9          C709   1.437       .  S
N10          C11   1.358       .  A
C11          N12   1.358       .  A
C11         C713   1.437       .  S
C13          N14   1.358       .  A
C13          N18   1.358       .  A
C13         C707   1.437       .  S
N14          C15   1.358       .  A
C15          N16   1.358       .  A
C15         C705   1.437       .  S
N16          C17   1.358       .  A
C17          N18   1.358       .  A
C17         C703   1.437       .  S
C19          N20   1.358       .  A
C19          N24   1.358       .  A
C19         C701   1.437       .  S
N20          C21   1.358       .  A
C21          N22   1.358       .  A
C21         C697   1.437       .  S
N22          C23   1.358       .  A
C23          N24   1.358       .  A
C23         C699   1.437       .  S
O25         Cu33   2.011       .  S
O25          C35   1.277       .  A
O26         Cu33   2.011   1_554  S
O26          C36   1.277       .  A
O27         Cu33   2.011       .  S
O27          C37   1.277       .  A
O28         Cu33   2.011   1_554  S
O28          C38   1.277       .  A
O29         Cu34   2.011   1_554  S
O29          C38   1.277       .  A
O30         Cu34   2.011       .  S
O30          C37   1.277       .  A
O31         Cu34   2.011   1_554  S
O31          C36   1.277       .  A
O32         Cu34   2.011       .  S
O32          C35   1.277       .  A
Cu33        Cu34   2.379       .  S
C35         C702   1.436       .  S
C36         C695   1.436       .  S
C37         C716   1.436       .  S
C38         C693   1.436       .  S
O39         Cu47   2.011       .  S
O39          C49   1.277       .  A
O40         Cu47   2.011   1_655  S
O40          C50   1.277       .  A
O41         Cu47   2.011       .  S
O41          C51   1.277       .  A
O42         Cu47   2.011   1_655  S
O42          C52   1.277       .  A
O43         Cu48   2.011   1_655  S
O43          C52   1.277       .  A
O44         Cu48   2.011       .  S
O44          C51   1.277       .  A
O45         Cu48   2.011   1_655  S
O45          C50   1.277       .  A
O46         Cu48   2.011       .  S
O46          C49   1.277       .  A
Cu47        Cu48   2.379       .  S
C49         C692   1.436       .  S
C50         C698   1.436       .  S
C51         C690   1.436       .  S
C52         C704   1.436       .  S
O53         Cu61   2.011   1_565  S
O53          C63   1.277       .  A
O54         Cu61   2.011       .  S
O54          C64   1.277       .  A
O55         Cu61   2.011   1_565  S
O55          C65   1.277       .  A
O56         Cu61   2.011       .  S
O56          C66   1.277       .  A
O57         Cu62   2.011       .  S
O57          C66   1.277       .  A
O58         Cu62   2.011   1_565  S
O58          C65   1.277       .  A
O59         Cu62   2.011       .  S
O59          C64   1.277       .  A
O60         Cu62   2.011   1_565  S
O60          C63   1.277       .  A
Cu61        Cu62   2.379       .  S
C63         C700   1.436       .  S
C64         C687   1.436       .  S
C65         C710   1.436       .  S
C66         C686   1.436       .  S
C67          N68   1.358       .  A
C67          N72   1.358       .  A
C67         C681   1.437       .  S
N68          C69   1.358       .  A
C69          N70   1.358       .  A
C69         C684   1.437       .  S
N70          C71   1.358       .  A
C71          N72   1.358       .  A
C71         C696   1.437       .  S
C73          N74   1.358       .  A
C73          N78   1.358       .  A
C73         C678   1.437       .  S
N74          C75   1.358       .  A
C75          N76   1.358       .  A
C75         C679   1.437       .  S
N76          C77   1.358       .  A
C77          N78   1.358       .  A
C77         C688   1.437       .  S
C79          N80   1.358       .  A
C79          N84   1.358       .  A
C79         C691   1.437       .  S
N80          C81   1.358       .  A
C81          N82   1.358       .  A
C81         C674   1.437       .  S
N82          C83   1.358       .  A
C83          N84   1.358       .  A
C83         C676   1.437       .  S
C85          N86   1.358       .  A
C85          N90   1.358       .  A
C85         C668   1.437       .  S
N86          C87   1.358       .  A
C87          N88   1.358       .  A
C87         C669   1.437       .  S
N88          C89   1.358       .  A
C89          N90   1.358       .  A
C89         C671   1.437       .  S
O91         Cu99   2.011       .  S
O91         C101   1.277       .  A
O92         Cu99   2.011   1_655  S
O92         C102   1.277       .  A
O93         Cu99   2.011       .  S
O93         C103   1.277       .  A
O94         Cu99   2.011   1_655  S
O94         C104   1.277       .  A
O95        Cu100   2.011   1_655  S
O95         C104   1.277       .  A
O96        Cu100   2.011       .  S
O96         C103   1.277       .  A
O97        Cu100   2.011   1_655  S
O97         C102   1.277       .  A
O98        Cu100   2.011       .  S
O98         C101   1.277       .  A
Cu99       Cu100   2.379       .  S
C101        C664   1.436       .  S
C102        C667   1.436       .  S
C103        C662   1.436       .  S
C104        C665   1.436       .  S
C105        N106   1.358       .  A
C105        N110   1.358       .  A
C105        C694   1.437       .  S
N106        C107   1.358       .  A
C107        N108   1.358       .  A
C107        C659   1.437       .  S
N108        C109   1.358       .  A
C109        N110   1.358       .  A
C109        C666   1.437       .  S
C111        N112   1.358       .  A
C111        N116   1.358       .  A
C111        C654   1.437       .  S
N112        C113   1.358       .  A
C113        N114   1.358       .  A
C113        C657   1.437       .  S
N114        C115   1.358       .  A
C115        N116   1.358       .  A
C115        C655   1.437       .  S
O117       Cu125   2.011   1_565  S
O117        C127   1.277       .  A
O118       Cu125   2.011       .  S
O118        C128   1.277       .  A
O119       Cu125   2.011   1_565  S
O119        C129   1.277       .  A
O120       Cu125   2.011       .  S
O120        C130   1.277       .  A
O121       Cu126   2.011       .  S
O121        C130   1.277       .  A
O122       Cu126   2.011   1_565  S
O122        C129   1.277       .  A
O123       Cu126   2.011       .  S
O123        C128   1.277       .  A
O124       Cu126   2.011   1_565  S
O124        C127   1.277       .  A
Cu125      Cu126   2.379       .  S
C127        C660   1.436       .  S
C128        C652   1.436       .  S
C129        C653   1.436       .  S
C130        C650   1.436       .  S
C131        N132   1.358       .  A
C131        N136   1.358       .  A
C131        C645   1.437       .  S
N132        C133   1.358       .  A
C133        N134   1.358       .  A
C133        C647   1.437       .  S
N134        C135   1.358       .  A
C135        N136   1.358       .  A
C135        C643   1.437       .  S
O137       Cu145   2.011   1_565  S
O137        C147   1.277       .  A
O138       Cu145   2.011       .  S
O138        C148   1.277       .  A
O139       Cu145   2.011   1_565  S
O139        C149   1.277       .  A
O140       Cu145   2.011       .  S
O140        C150   1.277       .  A
O141       Cu146   2.011       .  S
O141        C150   1.277       .  A
O142       Cu146   2.011   1_565  S
O142        C149   1.277       .  A
O143       Cu146   2.011       .  S
O143        C148   1.277       .  A
O144       Cu146   2.011   1_565  S
O144        C147   1.277       .  A
Cu145      Cu146   2.379       .  S
C147        C644   1.436       .  S
C148        C638   1.436       .  S
C149        C641   1.436       .  S
C150        C639   1.436       .  S
C151        N152   1.358       .  A
C151        N156   1.358       .  A
C151        C642   1.437       .  S
N152        C153   1.358       .  A
C153        N154   1.358       .  A
C153        C636   1.437       .  S
N154        C155   1.358       .  A
C155        N156   1.358       .  A
C155        C689   1.437       .  S
C157        N158   1.358       .  A
C157        N162   1.358       .  A
C157        C629   1.437       .  S
N158        C159   1.358       .  A
C159        N160   1.358       .  A
C159        C632   1.437       .  S
N160        C161   1.358       .  A
C161        N162   1.358       .  A
C161        C633   1.437       .  S
O163       Cu171   2.011       .  S
O163        C173   1.277       .  A
O164       Cu171   2.011   1_554  S
O164        C174   1.277       .  A
O165       Cu171   2.011       .  S
O165        C175   1.277       .  A
O166       Cu171   2.011   1_554  S
O166        C176   1.277       .  A
O167       Cu172   2.011   1_554  S
O167        C176   1.277       .  A
O168       Cu172   2.011       .  S
O168        C175   1.277       .  A
O169       Cu172   2.011   1_554  S
O169        C174   1.277       .  A
O170       Cu172   2.011       .  S
O170        C173   1.277       .  A
Cu171      Cu172   2.379       .  S
C173        C635   1.436       .  S
C174        C627   1.436       .  S
C175        C630   1.436       .  S
C176        C626   1.436       .  S
C177        N178   1.358       .  A
C177        N182   1.358       .  A
C177        C621   1.437       .  S
N178        C179   1.358       .  A
C179        N180   1.358       .  A
C179        C619   1.437       .  S
N180        C181   1.358       .  A
C181        N182   1.358       .  A
C181        C624   1.437       .  S
O183       Cu191   2.011   1_655  S
O183        C193   1.277       .  A
O184       Cu191   2.011       .  S
O184        C194   1.277       .  A
O185       Cu191   2.011   1_655  S
O185        C195   1.277       .  A
O186       Cu191   2.011       .  S
O186        C196   1.277       .  A
O187       Cu192   2.011       .  S
O187        C196   1.277       .  A
O188       Cu192   2.011   1_655  S
O188        C195   1.277       .  A
O189       Cu192   2.011       .  S
O189        C194   1.277       .  A
O190       Cu192   2.011   1_655  S
O190        C193   1.277       .  A
Cu191      Cu192   2.379       .  S
C193        C618   1.436       .  S
C194        C615   1.436       .  S
C195        C620   1.436       .  S
C196        C613   1.436       .  S
C197        N198   1.358       .  A
C197        N202   1.358       .  A
C197        C685   1.437       .  S
N198        C199   1.358       .  A
C199        N200   1.358       .  A
C199        C611   1.437       .  S
N200        C201   1.358       .  A
C201        N202   1.358       .  A
C201        C617   1.437       .  S
C203        N204   1.358       .  A
C203        N208   1.358       .  A
C203        C609   1.437       .  S
N204        C205   1.358       .  A
C205        N206   1.358       .  A
C205        C605   1.437       .  S
N206        C207   1.358       .  A
C207        N208   1.358       .  A
C207        C607   1.437       .  S
O209       Cu217   2.011   1_554  S
O209        C219   1.277       .  A
O210       Cu217   2.011       .  S
O210        C220   1.277       .  A
O211       Cu217   2.011   1_554  S
O211        C221   1.277       .  A
O212       Cu217   2.011       .  S
O212        C222   1.277       .  A
O213       Cu218   2.011       .  S
O213        C222   1.277       .  A
O214       Cu218   2.011   1_554  S
O214        C221   1.277       .  A
O215       Cu218   2.011       .  S
O215        C220   1.277       .  A
O216       Cu218   2.011   1_554  S
O216        C219   1.277       .  A
Cu217      Cu218   2.379       .  S
C219        C603   1.436       .  S
C220        C612   1.436       .  S
C221        C602   1.436       .  S
C222        C606   1.436       .  S
C223        N224   1.358       .  A
C223        N228   1.358       .  A
C223        C599   1.437       .  S
N224        C225   1.358       .  A
C225        N226   1.358       .  A
C225        C604   1.437       .  S
N226        C227   1.358       .  A
C227        N228   1.358       .  A
C227        C597   1.437       .  S
C229        N230   1.358       .  A
C229        N234   1.358       .  A
C229        C596   1.437       .  S
N230        C231   1.358       .  A
C231        N232   1.358       .  A
C231        C628   1.437       .  S
N232        C233   1.358       .  A
C233        N234   1.358       .  A
C233        C593   1.437       .  S
C235        N236   1.358       .  A
C235        N240   1.358       .  A
C235        C591   1.437       .  S
N236        C237   1.358       .  A
C237        N238   1.358       .  A
C237        C589   1.437       .  S
N238        C239   1.358       .  A
C239        N240   1.358       .  A
C239        C651   1.437       .  S
C241        N242   1.358       .  A
C241        N246   1.358       .  A
C241        C587   1.437       .  S
N242        C243   1.358       .  A
C243        N244   1.358       .  A
C243        C584   1.437       .  S
N244        C245   1.358       .  A
C245        N246   1.358       .  A
C245        C585   1.437       .  S
C247        N248   1.358       .  A
C247        N252   1.358       .  A
C247        C581   1.437       .  S
N248        C249   1.358       .  A
C249        N250   1.358       .  A
C249        C663   1.437       .  S
N250        C251   1.358       .  A
C251        N252   1.358       .  A
C251        C625   1.437       .  S
C253        N254   1.358       .  A
C253        N258   1.358       .  A
C253        C575   1.437       .  S
N254        C255   1.358       .  A
C255        N256   1.358       .  A
C255        C579   1.437       .  S
N256        C257   1.358       .  A
C257        N258   1.358       .  A
C257        C577   1.437       .  S
O259       Cu267   2.011       .  S
O259        C269   1.277       .  A
O260       Cu267   2.011   1_565  S
O260        C270   1.277       .  A
O261       Cu267   2.011       .  S
O261        C271   1.277       .  A
O262       Cu267   2.011   1_565  S
O262        C272   1.277       .  A
O263       Cu268   2.011   1_565  S
O263        C272   1.277       .  A
O264       Cu268   2.011       .  S
O264        C271   1.277       .  A
O265       Cu268   2.011   1_565  S
O265        C270   1.277       .  A
O266       Cu268   2.011       .  S
O266        C269   1.277       .  A
Cu267      Cu268   2.379       .  S
C269        C573   1.436       .  S
C270        C576   1.436       .  S
C271        C583   1.436       .  S
C272        C582   1.436       .  S
C273        N274   1.358       .  A
C273        N278   1.358       .  A
C273        C571   1.437       .  S
N274        C275   1.358       .  A
C275        N276   1.358       .  A
C275        C570   1.437       .  S
N276        C277   1.358       .  A
C277        N278   1.358       .  A
C277        C640   1.437       .  S
C279        N280   1.358       .  A
C279        N284   1.358       .  A
C279        C565   1.437       .  S
N280        C281   1.358       .  A
C281        N282   1.358       .  A
C281        C567   1.437       .  S
N282        C283   1.358       .  A
C283        N284   1.358       .  A
C283        C616   1.437       .  S
C285        N286   1.358       .  A
C285        N290   1.358       .  A
C285        C562   1.437       .  S
N286        C287   1.358       .  A
C287        N288   1.358       .  A
C287        C564   1.437       .  S
N288        C289   1.358       .  A
C289        N290   1.358       .  A
C289        C560   1.437       .  S
C291        N292   1.358       .  A
C291        N296   1.358       .  A
C291        C649   1.437       .  S
N292        C293   1.358       .  A
C293        N294   1.358       .  A
C293        C557   1.437       .  S
N294        C295   1.358       .  A
C295        N296   1.358       .  A
C295        C601   1.437       .  S
C297        N298   1.358       .  A
C297        N302   1.358       .  A
C297        C555   1.437       .  S
N298        C299   1.358       .  A
C299        N300   1.358       .  A
C299        C551   1.437       .  S
N300        C301   1.358       .  A
C301        N302   1.358       .  A
C301        C554   1.437       .  S
O303       Cu311   2.011   1_655  S
O303        C313   1.277       .  A
O304       Cu311   2.011       .  S
O304        C314   1.277       .  A
O305       Cu311   2.011   1_655  S
O305        C315   1.277       .  A
O306       Cu311   2.011       .  S
O306        C316   1.277       .  A
O307       Cu312   2.011       .  S
O307        C316   1.277       .  A
O308       Cu312   2.011   1_655  S
O308        C315   1.277       .  A
O309       Cu312   2.011       .  S
O309        C314   1.277       .  A
O310       Cu312   2.011   1_655  S
O310        C313   1.277       .  A
Cu311      Cu312   2.379       .  S
C313        C558   1.436       .  S
C314        C559   1.436       .  S
C315        C552   1.436       .  S
C316        C549   1.436       .  S
C317        N318   1.358       .  A
C317        N322   1.358       .  A
C317        C545   1.437       .  S
N318        C319   1.358       .  A
C319        N320   1.358       .  A
C319        C661   1.437       .  S
N320        C321   1.358       .  A
C321        N322   1.358       .  A
C321        C547   1.437       .  S
C323        N324   1.358       .  A
C323        N328   1.358       .  A
C323        C543   1.437       .  S
N324        C325   1.358       .  A
C325        N326   1.358       .  A
C325        C550   1.437       .  S
N326        C327   1.358       .  A
C327        N328   1.358       .  A
C327        C574   1.437       .  S
C329        N330   1.358       .  A
C329        N334   1.358       .  A
C329        C542   1.437       .  S
N330        C331   1.358       .  A
C331        N332   1.358       .  A
C331        C537   1.437       .  S
N332        C333   1.358       .  A
C333        N334   1.358       .  A
C333        C540   1.437       .  S
C335        N336   1.358       .  A
C335        N340   1.358       .  A
C335        C536   1.437       .  S
N336        C337   1.358       .  A
C337        N338   1.358       .  A
C337        C614   1.437       .  S
N338        C339   1.358       .  A
C339        N340   1.358       .  A
C339        C637   1.437       .  S
C341        N342   1.358       .  A
C341        N346   1.358       .  A
C341        C533   1.437       .  S
N342        C343   1.358       .  A
C343        N344   1.358       .  A
C343        C529   1.437       .  S
N344        C345   1.358       .  A
C345        N346   1.358       .  A
C345        C531   1.437       .  S
O347       Cu355   2.011   1_554  S
O347        C357   1.277       .  A
O348       Cu355   2.011       .  S
O348        C358   1.277       .  A
O349       Cu355   2.011   1_554  S
O349        C359   1.277       .  A
O350       Cu355   2.011       .  S
O350        C360   1.277       .  A
O351       Cu356   2.011       .  S
O351        C360   1.277       .  A
O352       Cu356   2.011   1_554  S
O352        C359   1.277       .  A
O353       Cu356   2.011       .  S
O353        C358   1.277       .  A
O354       Cu356   2.011   1_554  S
O354        C357   1.277       .  A
Cu355      Cu356   2.379       .  S
C357        C538   1.436       .  S
C358        C535   1.436       .  S
C359        C544   1.436       .  S
C360        C530   1.436       .  S
O361       Cu369   2.011       .  S
O361        C371   1.277       .  A
O362       Cu369   2.011       .  S
O362        C372   1.277       .  A
O363       Cu369   2.011       .  S
O363        C373   1.277       .  A
O364       Cu369   2.011       .  S
O364        C374   1.277       .  A
O365       Cu370   2.011       .  S
O365        C374   1.277       .  A
O366       Cu370   2.011       .  S
O366        C373   1.277       .  A
O367       Cu370   2.011       .  S
O367        C372   1.277       .  A
O368       Cu370   2.011       .  S
O368        C371   1.277       .  A
Cu369      Cu370   2.379       .  S
C371        C539   1.436       .  S
C372        C546   1.436       .  S
C373        C563   1.436       .  S
C374        C594   1.436       .  S
O375       Cu383   2.011       .  S
O375        C385   1.277       .  A
O376       Cu383   2.011       .  S
O376        C386   1.277       .  A
O377       Cu383   2.011       .  S
O377        C387   1.277       .  A
O378       Cu383   2.011       .  S
O378        C388   1.277       .  A
O379       Cu384   2.011       .  S
O379        C388   1.277       .  A
O380       Cu384   2.011       .  S
O380        C387   1.277       .  A
O381       Cu384   2.011       .  S
O381        C386   1.277       .  A
O382       Cu384   2.011       .  S
O382        C385   1.277       .  A
Cu383      Cu384   2.379       .  S
C385        C590   1.436       .  S
C386        C541   1.436       .  S
C387        C598   1.436       .  S
C388        C586   1.436       .  S
O389       Cu397   2.011       .  S
O389        C399   1.277       .  A
O390       Cu397   2.011       .  S
O390        C400   1.277       .  A
O391       Cu397   2.011       .  S
O391        C401   1.277       .  A
O392       Cu397   2.011       .  S
O392        C402   1.277       .  A
O393       Cu398   2.011       .  S
O393        C402   1.277       .  A
O394       Cu398   2.011       .  S
O394        C401   1.277       .  A
O395       Cu398   2.011       .  S
O395        C400   1.277       .  A
O396       Cu398   2.011       .  S
O396        C399   1.277       .  A
Cu397      Cu398   2.379       .  S
C399        C569   1.436       .  S
C400        C561   1.436       .  S
C401        C566   1.436       .  S
C402        C588   1.436       .  S
O403       Cu411   2.011       .  S
O403        C413   1.277       .  A
O404       Cu411   2.011       .  S
O404        C414   1.277       .  A
O405       Cu411   2.011       .  S
O405        C415   1.277       .  A
O406       Cu411   2.011       .  S
O406        C416   1.277       .  A
O407       Cu412   2.011       .  S
O407        C416   1.277       .  A
O408       Cu412   2.011       .  S
O408        C415   1.277       .  A
O409       Cu412   2.011       .  S
O409        C414   1.277       .  A
O410       Cu412   2.011       .  S
O410        C413   1.277       .  A
Cu411      Cu412   2.379       .  S
C413        C548   1.436       .  S
C414        C646   1.436       .  S
C415        C580   1.436       .  S
C416        C675   1.436       .  S
O417       Cu425   2.011       .  S
O417        C427   1.277       .  A
O418       Cu425   2.011       .  S
O418        C428   1.277       .  A
O419       Cu425   2.011       .  S
O419        C429   1.277       .  A
O420       Cu425   2.011       .  S
O420        C430   1.277       .  A
O421       Cu426   2.011       .  S
O421        C430   1.277       .  A
O422       Cu426   2.011       .  S
O422        C429   1.277       .  A
O423       Cu426   2.011       .  S
O423        C428   1.277       .  A
O424       Cu426   2.011       .  S
O424        C427   1.277       .  A
Cu425      Cu426   2.379       .  S
C427        C556   1.436       .  S
C428        C680   1.436       .  S
C429        C592   1.436       .  S
C430        C622   1.436       .  S
O431       Cu439   2.011       .  S
O431        C441   1.277       .  A
O432       Cu439   2.011       .  S
O432        C442   1.277       .  A
O433       Cu439   2.011       .  S
O433        C443   1.277       .  A
O434       Cu439   2.011       .  S
O434        C444   1.277       .  A
O435       Cu440   2.011       .  S
O435        C444   1.277       .  A
O436       Cu440   2.011       .  S
O436        C443   1.277       .  A
O437       Cu440   2.011       .  S
O437        C442   1.277       .  A
O438       Cu440   2.011       .  S
O438        C441   1.277       .  A
Cu439      Cu440   2.379       .  S
C441        C534   1.436       .  S
C442        C673   1.436       .  S
C443        C568   1.436       .  S
C444        C631   1.436       .  S
O445       Cu453   2.011       .  S
O445        C455   1.277       .  A
O446       Cu453   2.011       .  S
O446        C456   1.277       .  A
O447       Cu453   2.011       .  S
O447        C457   1.277       .  A
O448       Cu453   2.011       .  S
O448        C458   1.277       .  A
O449       Cu454   2.011       .  S
O449        C458   1.277       .  A
O450       Cu454   2.011       .  S
O450        C457   1.277       .  A
O451       Cu454   2.011       .  S
O451        C456   1.277       .  A
O452       Cu454   2.011       .  S
O452        C455   1.277       .  A
Cu453      Cu454   2.379       .  S
C455        C600   1.436       .  S
C456        C670   1.436       .  S
C457        C553   1.436       .  S
C458        C682   1.436       .  S
O459       Cu467   2.011       .  S
O459        C469   1.277       .  A
O460       Cu467   2.011       .  S
O460        C470   1.277       .  A
O461       Cu467   2.011       .  S
O461        C471   1.277       .  A
O462       Cu467   2.011       .  S
O462        C472   1.277       .  A
O463       Cu468   2.011       .  S
O463        C472   1.277       .  A
O464       Cu468   2.011       .  S
O464        C471   1.277       .  A
O465       Cu468   2.011       .  S
O465        C470   1.277       .  A
O466       Cu468   2.011       .  S
O466        C469   1.277       .  A
Cu467      Cu468   2.379       .  S
C469        C572   1.436       .  S
C470        C608   1.436       .  S
C471        C532   1.436       .  S
C472        C677   1.436       .  S
O473       Cu481   2.011       .  S
O473        C483   1.277       .  A
O474       Cu481   2.011       .  S
O474        C484   1.277       .  A
O475       Cu481   2.011       .  S
O475        C485   1.277       .  A
O476       Cu481   2.011       .  S
O476        C486   1.277       .  A
O477       Cu482   2.011       .  S
O477        C486   1.277       .  A
O478       Cu482   2.011       .  S
O478        C485   1.277       .  A
O479       Cu482   2.011       .  S
O479        C484   1.277       .  A
O480       Cu482   2.011       .  S
O480        C483   1.277       .  A
Cu481      Cu482   2.379       .  S
C483        C683   1.436       .  S
C484        C578   1.436       .  S
C485        C656   1.436       .  S
C486        C595   1.436       .  S
O487       Cu495   2.011       .  S
O487        C497   1.277       .  A
O488       Cu495   2.011       .  S
O488        C498   1.277       .  A
O489       Cu495   2.011       .  S
O489        C499   1.277       .  A
O490       Cu495   2.011       .  S
O490        C500   1.277       .  A
O491       Cu496   2.011       .  S
O491        C500   1.277       .  A
O492       Cu496   2.011       .  S
O492        C499   1.277       .  A
O493       Cu496   2.011       .  S
O493        C498   1.277       .  A
O494       Cu496   2.011       .  S
O494        C497   1.277       .  A
Cu495      Cu496   2.379       .  S
C497        C708   1.436       .  S
C498        C658   1.436       .  S
C499        C714   1.436       .  S
C500        C672   1.436       .  S
O501       Cu509   2.011       .  S
O501        C511   1.277       .  A
O502       Cu509   2.011       .  S
O502        C512   1.277       .  A
O503       Cu509   2.011       .  S
O503        C513   1.277       .  A
O504       Cu509   2.011       .  S
O504        C514   1.277       .  A
O505       Cu510   2.011       .  S
O505        C514   1.277       .  A
O506       Cu510   2.011       .  S
O506        C513   1.277       .  A
O507       Cu510   2.011       .  S
O507        C512   1.277       .  A
O508       Cu510   2.011       .  S
O508        C511   1.277       .  A
Cu509      Cu510   2.379       .  S
C511        C706   1.436       .  S
C512        C610   1.436       .  S
C513        C719   1.436       .  S
C514        C623   1.436       .  S
O515       Cu523   2.011       .  S
O515        C525   1.277       .  A
O516       Cu523   2.011       .  S
O516        C526   1.277       .  A
O517       Cu523   2.011       .  S
O517        C527   1.277       .  A
O518       Cu523   2.011       .  S
O518        C528   1.277       .  A
O519       Cu524   2.011       .  S
O519        C528   1.277       .  A
O520       Cu524   2.011       .  S
O520        C527   1.277       .  A
O521       Cu524   2.011       .  S
O521        C526   1.277       .  A
O522       Cu524   2.011       .  S
O522        C525   1.277       .  A
Cu523      Cu524   2.379       .  S
C525        C634   1.436       .  S
C526        C712   1.436       .  S
C527        C648   1.436       .  S
C528        C718   1.436       .  S
C529        C530   1.206       .  T
C531        C532   1.206       .  T
C533        C534   1.206       .  T
C535        C536   1.206       .  T
C537        C538   1.206       .  T
C539        C540   1.206       .  T
C541        C542   1.206       .  T
C543        C544   1.206       .  T
C545        C546   1.206       .  T
C547        C548   1.206       .  T
C549        C550   1.206       .  T
C551        C552   1.206       .  T
C553        C554   1.206       .  T
C555        C556   1.206       .  T
C557        C558   1.206       .  T
C559        C560   1.206       .  T
C561        C562   1.206       .  T
C563        C564   1.206       .  T
C565        C566   1.206       .  T
C567        C568   1.206       .  T
C569        C570   1.206       .  T
C571        C572   1.206       .  T
C573        C574   1.206       .  T
C575        C576   1.206       .  T
C577        C578   1.206       .  T
C579        C580   1.206       .  T
C581        C582   1.206       .  T
C583        C584   1.206       .  T
C585        C586   1.206       .  T
C587        C588   1.206       .  T
C589        C590   1.206       .  T
C591        C592   1.206       .  T
C593        C594   1.206       .  T
C595        C596   1.206       .  T
C597        C598   1.206       .  T
C599        C600   1.206       .  T
C601        C602   1.206       .  T
C603        C604   1.206       .  T
C605        C606   1.206       .  T
C607        C608   1.206       .  T
C609        C610   1.206       .  T
C611        C612   1.206       .  T
C613        C614   1.206       .  T
C615        C616   1.206       .  T
C617        C618   1.206       .  T
C619        C620   1.206       .  T
C621        C622   1.206       .  T
C623        C624   1.206       .  T
C625        C626   1.206       .  T
C627        C628   1.206       .  T
C629        C630   1.206       .  T
C631        C632   1.206       .  T
C633        C634   1.206       .  T
C635        C636   1.206       .  T
C637        C638   1.206       .  T
C639        C640   1.206       .  T
C641        C642   1.206       .  T
C643        C644   1.206       .  T
C645        C646   1.206       .  T
C647        C648   1.206       .  T
C649        C650   1.206       .  T
C651        C652   1.206       .  T
C653        C654   1.206       .  T
C655        C656   1.206       .  T
C657        C658   1.206       .  T
C659        C660   1.206       .  T
C661        C662   1.206       .  T
C663        C664   1.206       .  T
C665        C666   1.206       .  T
C667        C668   1.206       .  T
C669        C670   1.206       .  T
C671        C672   1.206       .  T
C673        C674   1.206       .  T
C675        C676   1.206       .  T
C677        C678   1.206       .  T
C679        C680   1.206       .  T
C681        C682   1.206       .  T
C683        C684   1.206       .  T
C685        C686   1.206       .  T
C687        C688   1.206       .  T
C689        C690   1.206       .  T
C691        C692   1.206       .  T
C693        C694   1.206       .  T
C695        C696   1.206       .  T
C697        C698   1.206       .  T
C699        C700   1.206       .  T
C701        C702   1.206       .  T
C703        C704   1.206       .  T
C705        C706   1.206       .  T
C707        C708   1.206       .  T
C709        C710   1.206       .  T
C711        C712   1.206       .  T
C713        C714   1.206       .  T
C715        C716   1.206       .  T
C717        C718   1.206       .  T
C719        C720   1.206       .  T
