geometry optimzed in LAMMPS
_audit_creation_date              2020-12-01 
_audit_creation_method            'lammps2cif' 
_symmetry_space_group_name_H-M    'P1' 
_symmetry_Int_Tables_number       1 
_symmetry_cell_setting            triclinic 
loop_ 
_symmetry_equiv_pos_as_xyz 
  x,y,z 
_cell_length_a                    37.41170976 
_cell_length_b                    27.15190989292946 
_cell_length_c                    34.928915670808365 
_cell_angle_alpha                 90.15809144385194 
_cell_angle_beta                  89.31787564826504 
_cell_angle_gamma                 89.8152507966153 
loop_ 
_atom_site_label 
_atom_site_type_symbol 
_atom_site_fract_x 
_atom_site_fract_y 
_atom_site_fract_z 
_atom_site_charge 
N1          N  0.00031971  0.42731669  0.99899717    -0.37000
N2          N  0.49774942  0.49327268  0.44173490    -0.57600
N3          N  0.49780105  0.57154999  0.49665556    -0.37000
N4          N  0.49525529  0.50643044  0.05965758    -0.57600
C5          C  0.98476190  0.39295218  0.46960943     0.26600
C6          C  0.99583053  0.40178416  0.03190521     0.26600
C7          C  0.49543022  0.59750477  0.46361292     0.26600
C8          C  0.48510620  0.60719380  0.02618203     0.26600
C9          C  0.99621222  0.45128282  0.41571413     0.35200
C10         C  0.50920049  0.52961485  0.41823252     0.35200
C11         C  0.00597660  0.47011748  0.07749812     0.35200
C12         C  0.49701021  0.54895455  0.07980741     0.35200
C13         C  0.97474592  0.34775989  0.48487806    -0.22300
C14         C  0.98096002  0.35631645  0.02386261    -0.22300
C15         C  0.48046386  0.64320951  0.47142944    -0.22300
C16         C  0.47330210  0.65153109  0.01102931    -0.22300
C17         C  0.00846838  0.45997770  0.37871323    -0.23300
C18         C  0.51858489  0.51027397  0.38272551    -0.23300
C19         C  0.01404242  0.48970323  0.11301467    -0.23300
C20         C  0.50904160  0.53952683  0.11648151    -0.23300
C21         C  0.98514727  0.40486824  0.42984926    -0.18700
C22         C  0.00483095  0.41905699  0.06885435    -0.18700
C23         C  0.48692451  0.59603021  0.06600748    -0.18700
C24         C  0.50636534  0.58046504  0.42672108    -0.18700
H25         H  0.96413633  0.31641858  0.46959825     0.14200
H26         H  0.97416205  0.32759378  0.04407802     0.14200
H27         H  0.47514027  0.67236785  0.45119335     0.14200
H28         H  0.46197458  0.68245667  0.02663180     0.14200
H29         H  0.01194107  0.43346980  0.35576044     0.12500
H30         H  0.52786358  0.53011634  0.35769999     0.12500
H31         H  0.02289877  0.47002574  0.13809945     0.12500
H32         H  0.51312028  0.56583855  0.13933576     0.12500
H33         H  0.01450175  0.46002787  0.99643841     0.25800
H34         H  0.51178231  0.53874751  0.49984440     0.25800
Fe35       Fe  0.00209803  0.10446869  0.24327647     1.65800
Fe36       Fe  0.04408235  0.21110244  0.25918780     1.73200
Fe37       Fe  0.45855980  0.21001640  0.23748195     1.54400
O38         O  0.45771031  0.16641019  0.18635108    -0.82100
O39         O  0.01706227  0.25948961  0.29323770    -0.80400
O40         O  0.50143783  0.10859494  0.19151069    -0.84600
O41         O  0.44653561  0.09351342  0.24679523    -0.79400
O42         O  0.98352433  0.26192837  0.20084717    -0.81200
O43         O  0.04522316  0.16350337  0.30816898    -0.83900
C44         C  0.42089505  0.11977482  0.25880911     0.96800
C45         C  0.47883057  0.13297391  0.17223160     1.04300
O46         O  0.00156148  0.17610384  0.24467529    -1.12900
O47         O  0.07829494  0.16738055  0.22722109    -0.75400
O48         O  0.05718683  0.09553385  0.24465241    -0.78800
O49         O  0.42562188  0.16396226  0.26789780    -0.79500
C50         C  0.08305838  0.12258091  0.23493950     0.95700
O51         O  0.00215839  0.10582498  0.30036123    -0.77500
O52         O  0.04192756  0.26072687  0.21196106    -0.82700
C53         C  0.48656302  0.26860486  0.30713376     0.98300
C54         C  0.01474063  0.27758326  0.19407499     1.04300
O55         O  0.45984341  0.25361561  0.28778942    -0.78300
C56         C  0.02377121  0.12986592  0.32098836     1.02600
C57         C  0.21887040  0.02295084  0.24764842     0.01900
C58         C  0.22007603  0.97099554  0.25079433     0.01900
C59         C  0.25325731  0.94688158  0.25067532    -0.18700
C60         C  0.28508207  0.97383576  0.25035623     0.01900
C61         C  0.28372685  0.02563115  0.25337817     0.01900
C62         C  0.25073894  0.04981635  0.25041077    -0.18700
H63         H  0.24987738  0.08972943  0.25018681     0.03900
H64         H  0.25432489  0.90696982  0.25085608     0.03900
Fe65       Fe  0.50569848  0.89534352  0.25571801     1.65800
Fe66       Fe  0.45885105  0.79155699  0.26651138     1.73200
Fe67       Fe  0.04384467  0.78648850  0.22740600     1.54400
O68         O  0.04713365  0.83746656  0.18079906    -0.82100
O69         O  0.48388205  0.73878423  0.29725118    -0.80400
O70         O  0.00654291  0.89793828  0.19236900    -0.84600
O71         O  0.06124996  0.89937711  0.24801509    -0.79400
O72         O  0.51477534  0.74465684  0.19874629    -0.81200
O73         O  0.45852842  0.83536571  0.31769011    -0.83900
C74         C  0.08598126  0.86947250  0.25580487     0.96800
C75         C  0.02782072  0.87449385  0.17027934     1.04300
O76         O  0.50301651  0.82372777  0.25221169    -1.12900
O77         O  0.42792952  0.83968896  0.23664437    -0.75400
O78         O  0.45071910  0.90879871  0.25770981    -0.78800
O79         O  0.07994117  0.82423074  0.26016123    -0.79500
C80         C  0.42440806  0.88399999  0.24620102     0.95700
O81         O  0.50467170  0.88861025  0.31266150    -0.77500
O82         O  0.45766677  0.74651963  0.21667127    -0.82700
C83         C  0.01508575  0.71989127  0.29400485     0.98300
C84         C  0.48254997  0.73313075  0.19340216     1.04300
O85         O  0.04102321  0.73292580  0.27194427    -0.78300
C86         C  0.48047303  0.86696275  0.33191327     1.02600
C87         C  0.49510908  0.97822460  0.46780523     0.01900
C88         C  0.99936585  0.03009859  0.46122266     0.01900
C89         C  0.99570420  0.05646644  0.49533456    -0.18700
C90         C  0.99439700  0.02549769  0.02961758     0.01900
C91         C  0.49820721  0.97213560  0.03620679     0.01900
C92         C  0.49644335  0.95405432  0.50290383    -0.18700
H93         H  0.49862126  0.91424940  0.50319884     0.03900
H94         H  0.99494605  0.09641091  0.49454402     0.03900
C95         C  0.02821908  0.89186259  0.13071508    -0.06500
C96         C  0.50195232  0.87326931  0.11356714    -0.17600
C97         C  0.48994162  0.89956387  0.08183454     0.10700
C98         C  0.00623786  0.94585179  0.06602243    -0.06400
C99         C  0.03539265  0.96148013  0.08790433    -0.17700
C100        C  0.04609658  0.93569553  0.12043594     0.10700
S101        S  0.45141176  0.87470246  0.05785172    -0.32600
S102        S  0.08138850  0.96250450  0.14845158    -0.32600
H103        H  0.08575688  0.92373555  0.17430440     0.28700
H104        H  0.43934015  0.91883409  0.04168193     0.28700
H105        H  0.48769346  0.84033568  0.12226785     0.19300
H106        H  0.04988288  0.99437797  0.07974333     0.19300
C107        C  0.47814334  0.88284287  0.37182868    -0.06500
C108        C  0.45239208  0.91856204  0.38132855    -0.17600
C109        C  0.45719275  0.95024046  0.41250856     0.10700
C110        C  0.48917472  0.94750547  0.43360508    -0.06400
C111        C  0.01718729  0.91137542  0.41878289    -0.17700
C112        C  0.01176926  0.87893108  0.38848997     0.10700
S113        S  0.42170765  0.99326092  0.42364697    -0.32600
S114        S  0.04670077  0.83513396  0.37750911    -0.32600
H115        H  0.02420006  0.80132746  0.35908940     0.28700
H116        H  0.42601884  0.99207148  0.46357317     0.28700
H117        H  0.42951441  0.92383203  0.36304736     0.19300
H118        H  0.04165168  0.90881423  0.43499143     0.19300
C119        C  0.18724749  0.94112072  0.25478170    -0.06500
C120        C  0.17841575  0.90889656  0.22501810    -0.17600
C121        C  0.14657000  0.88222418  0.22602072     0.10700
C122        C  0.12267839  0.88823329  0.25735863    -0.06400
C123        C  0.13216367  0.91885140  0.28791261    -0.17700
C124        C  0.16464381  0.94428984  0.28744410     0.10700
S125        S  0.13679274  0.84447818  0.18491758    -0.32600
S126        S  0.17579162  0.97954031  0.32946973    -0.33200
H127        H  0.21309485  0.97581977  0.32494538     0.28700
H128        H  0.12047435  0.80622720  0.20553724     0.28700
H129        H  0.19605545  0.90554658  0.20029601     0.19300
H130        H  0.11399043  0.92330182  0.31209117     0.19300
C131        C  0.31961993  0.94752172  0.24684583    -0.06500
C132        C  0.33085620  0.91905451  0.27776142    -0.17600
C133        C  0.36480639  0.89778160  0.27786495     0.10700
C134        C  0.38843765  0.90561377  0.24664314    -0.06400
C135        C  0.37689785  0.93275286  0.21508682    -0.17700
C136        C  0.34239000  0.95282807  0.21445998     0.10700
S137        S  0.37669901  0.86211096  0.31915016    -0.32600
S138        S  0.32872999  0.98326207  0.17114245    -0.32600
H139        H  0.29177422  0.97639215  0.17637912     0.28700
H140        H  0.39030848  0.82228063  0.29767460     0.28700
H141        H  0.31326348  0.91419528  0.30233708     0.19300
H142        H  0.39458575  0.93750306  0.19057809     0.19300
C143        C  0.47723561  0.11835935  0.13218693    -0.06500
C144        C  0.45096052  0.08421086  0.12227110    -0.17600
C145        C  0.45604065  0.05256403  0.09092679     0.10700
C146        C  0.48832452  0.05473638  0.06970990    -0.06400
C147        C  0.51359939  0.09093277  0.07838034    -0.17700
C148        C  0.50822950  0.12289562  0.10915007     0.10700
S149        S  0.42118638  0.01003083  0.07814695    -0.32600
S150        S  0.54301532  0.16648239  0.11961146    -0.32600
H151        H  0.52059949  0.19990578  0.13929699     0.28700
H152        H  0.39796758  0.02072583  0.10906232     0.28700
H153        H  0.42769886  0.08001803  0.14068767     0.19300
H154        H  0.53787289  0.09384677  0.06128194     0.19300
C155        C  0.02260524  0.11603854  0.36133038    -0.06500
C156        C  0.04807115  0.08250000  0.37452174    -0.17600
C157        C  0.04128084  0.05421369  0.40721217     0.10700
C158        C  0.00774805  0.05823370  0.42617711    -0.06400
C159        C  0.48348252  0.09551023  0.42034295    -0.17700
C160        C  0.49113249  0.12400787  0.38803010     0.10700
S161        S  0.07643309  0.01387008  0.42315392    -0.32600
S162        S  0.45925805  0.16972127  0.37255217    -0.32600
H163        H  0.43895551  0.17097802  0.40670861     0.28700
H164        H  0.06850472  0.01102962  0.96019926     0.28700
H165        H  0.07254235  0.07652000  0.35821475     0.19300
H166        H  0.45869049  0.10133769  0.43606013     0.19300
C167        C  0.38447393  0.09972106  0.25928213    -0.06500
C168        C  0.37260056  0.07204120  0.29069404    -0.17600
C169        C  0.33860822  0.05046961  0.29088070     0.10700
C170        C  0.31678595  0.05478421  0.25817194    -0.06400
C171        C  0.32817142  0.08422394  0.22762594    -0.17700
C172        C  0.36154420  0.10693311  0.22795437     0.10700
S173        S  0.32447554  0.01896571  0.33386352    -0.32600
S174        S  0.37404128  0.14263478  0.18661753    -0.32600
H175        H  0.38843854  0.18170802  0.20783550     0.28700
H176        H  0.28753102  0.02313030  0.32768926     0.28700
H177        H  0.38979720  0.06742850  0.31519350     0.19300
H178        H  0.31138336  0.08820774  0.20273570     0.19300
C179        C  0.18485231  0.05020550  0.24214021    -0.06500
C180        C  0.17326919  0.08214256  0.27129581    -0.17600
C181        C  0.14112408  0.10807290  0.26851351     0.10700
C182        C  0.11948316  0.10180654  0.23596787    -0.06400
C183        C  0.13125879  0.07057803  0.20636011    -0.17700
C184        C  0.16410053  0.04566749  0.20864074     0.10700
S185        S  0.12833096  0.14631398  0.30860893    -0.32600
S186        S  0.17821673  0.00996571  0.16750061    -0.32600
H187        H  0.21514477  0.01328317  0.17389992     0.28700
H188        H  0.11520045  0.18512200  0.28623942     0.28700
H189        H  0.18924259  0.08637297  0.29678097     0.19300
H190        H  0.11480578  0.06568254  0.18131353     0.19300
C191        C  0.00808805  0.38289702  0.10102038    -0.06500
C192        C  0.03970926  0.35516531  0.10531058    -0.17600
C193        C  0.04428931  0.32271657  0.13649835     0.10700
C194        C  0.01656526  0.31727786  0.16411623    -0.06400
C195        C  0.48810027  0.34863623  0.16775742    -0.17700
C196        C  0.48250735  0.38016882  0.13680984     0.10700
S197        S  0.08518799  0.28800754  0.13850582    -0.32600
S198        S  0.44132199  0.41504031  0.13666118    -0.32600
H199        H  0.43753508  0.41606822  0.09668813     0.28700
H200        H  0.09213509  0.30181622  0.17652196     0.28700
H201        H  0.06105712  0.35904441  0.08431569     0.19300
H202        H  0.46759723  0.34722736  0.18991785     0.19300
C203        C  0.48253339  0.29826538  0.34294608    -0.06500
C204        C  0.45602334  0.33479221  0.34630287    -0.17600
C205        C  0.45576842  0.36813770  0.37728011     0.10700
C206        C  0.48263871  0.36506557  0.40553269    -0.06400
C207        C  0.00371164  0.32669162  0.39941141    -0.17700
C208        C  0.00455137  0.29326547  0.36898673     0.10700
S209        S  0.42152564  0.41502627  0.37827075    -0.32600
S210        S  0.03798310  0.24498216  0.37022389    -0.32600
H211        H  0.05119047  0.25444205  0.40703769     0.28700
H212        H  0.42229932  0.42347165  0.41797615     0.28700
H213        H  0.43639691  0.33876549  0.32395270     0.19300
H214        H  0.02380792  0.32452141  0.42139981     0.19300
C215        C  0.48147172  0.63630277  0.09506146    -0.06500
C216        C  0.45365196  0.63269998  0.12259752    -0.17600
C217        C  0.45078512  0.66602338  0.15361716     0.10700
C218        C  0.47639737  0.70383353  0.15756641    -0.06400
C219        C  0.99819550  0.71136287  0.12126481    -0.17700
C220        C  0.00193330  0.67785833  0.09102516     0.10700
S221        S  0.41557530  0.65645253  0.18822897    -0.32600
S222        S  0.03862715  0.68805386  0.05800795    -0.32600
H223        H  0.04858095  0.63823262  0.05468141     0.28700
H224        H  0.40428978  0.70591916  0.18762085     0.28700
H225        H  0.43481144  0.60259956  0.12064671     0.19300
H226        H  0.01649888  0.74222235  0.12206456     0.19300
C227        C  0.01763340  0.67994444  0.32335822    -0.06500
C228        C  0.48648770  0.65078028  0.33500232    -0.17600
C229        C  0.48206934  0.61953087  0.36645405     0.10700
C230        C  0.00941366  0.61557237  0.38724762    -0.06400
C231        C  0.04142792  0.64181086  0.38116777    -0.17700
C232        C  0.04576677  0.67421451  0.34982712     0.10700
S233        S  0.44098643  0.58483784  0.36941179    -0.32600
S234        S  0.08742048  0.70706018  0.34596018    -0.32600
H235        H  0.07315887  0.75084635  0.33140796     0.28700
H236        H  0.43929496  0.58116901  0.40948421     0.28700
H237        H  0.46485625  0.65322461  0.31470285     0.19300
H238        H  0.06303179  0.63745690  0.40127346     0.19300
N239        N  0.99720495  0.42183553  0.49820326    -0.37000
N240        N  0.49715861  0.49942741  0.94281377    -0.57600
N241        N  0.49825309  0.57870216  0.99729699    -0.37000
N242        N  0.49427422  0.49870183  0.55857409    -0.57600
C243        C  0.98788476  0.39913092  0.96998970     0.26600
C244        C  0.99487187  0.39599849  0.53127769     0.26600
C245        C  0.49488446  0.60411199  0.96412957     0.26600
C246        C  0.48400368  0.59976165  0.52538950     0.26600
C247        C  0.00294684  0.45688805  0.91739184     0.35200
C248        C  0.50881557  0.53565665  0.91928743     0.35200
C249        C  0.00451411  0.46527900  0.57639230     0.35200
C250        C  0.49398662  0.54093944  0.57927081     0.35200
C251        C  0.97538414  0.35494119  0.98485298    -0.22300
C252        C  0.98165841  0.34945066  0.52365607    -0.22300
C253        C  0.47987488  0.64979497  0.97196933    -0.22300
C254        C  0.47290605  0.64445198  0.51027923    -0.22300
C255        C  0.01798274  0.46583851  0.88165802    -0.23300
C256        C  0.51932058  0.51585318  0.88426042    -0.23300
C257        C  0.01254734  0.48527090  0.61181419    -0.23300
C258        C  0.50424996  0.53131915  0.61653475    -0.23300
C259        C  0.99061029  0.41068083  0.93036408    -0.18700
C260        C  0.00393188  0.41411734  0.56806998    -0.18700
C261        C  0.48473854  0.58825296  0.56522186    -0.18700
C262        C  0.50540663  0.58668575  0.92724082    -0.18700
H263        H  0.96406151  0.32442273  0.96917859     0.14200
H264        H  0.97675241  0.32019425  0.54402162     0.14200
H265        H  0.47396548  0.67863120  0.95164719     0.14200
H266        H  0.46133474  0.67526484  0.52581400     0.14200
H267        H  0.02349893  0.43934769  0.85912403     0.12500
H268        H  0.52908108  0.53544509  0.85932159     0.12500
H269        H  0.02186366  0.46608662  0.63692964     0.12500
H270        H  0.50669902  0.55731029  0.63989138     0.12500
H271        H  0.00993752  0.45550240  0.49509310     0.25800
H272        H  0.51236663  0.54594418  0.00034220     0.25800
Fe273      Fe  0.00203235  0.10702348  0.74236550     1.65800
Fe274      Fe  0.04500407  0.21177347  0.76170918     1.73200
Fe275      Fe  0.45865874  0.21151174  0.74196647     1.54400
O276        O  0.45536563  0.16970401  0.69021696    -0.82100
O277        O  0.01850410  0.25971523  0.79657051    -0.80400
O278        O  0.49966558  0.11266024  0.69178842    -0.84600
O279        O  0.44638179  0.09521692  0.74902285    -0.79400
O280        O  0.98554225  0.26567582  0.70415683    -0.81200
O281        O  0.04502577  0.16218715  0.80961145    -0.83900
C282        C  0.42111767  0.12130314  0.76235353     0.96800
C283        C  0.47622305  0.13753569  0.67418386     1.04300
O284        O  0.00205821  0.17845796  0.74625816    -1.12900
O285        O  0.07889993  0.16881877  0.72893729    -0.75400
O286        O  0.05701256  0.09658829  0.74378020    -0.78800
O287        O  0.42638766  0.16497126  0.77264149    -0.79500
C288        C  0.08323606  0.12369088  0.73544066     0.95700
O289        O  0.00209988  0.10483749  0.79949419    -0.77500
O290        O  0.04391269  0.26272592  0.71525139    -0.82700
C291        C  0.48761951  0.26843940  0.81233678     0.98300
C292        C  0.01698569  0.28037113  0.69738725     1.04300
O293        O  0.46101936  0.25482156  0.79228533    -0.78300
C294        C  0.02364962  0.12762728  0.82107034     1.02600
C295        C  0.21896446  0.02434993  0.74823344     0.01900
C296        C  0.21979044  0.97231587  0.74970877     0.01900
C297        C  0.25289986  0.94806196  0.74803144    -0.18700
C298        C  0.28499485  0.97472693  0.74829589     0.01900
C299        C  0.28394319  0.02635137  0.75402996     0.01900
C300        C  0.25091878  0.05080995  0.75215356    -0.18700
H301        H  0.25005852  0.09068456  0.75360656     0.03900
H302        H  0.25369266  0.90818758  0.74648011     0.03900
Fe303      Fe  0.50378568  0.89512647  0.75173272     1.65800
Fe304      Fe  0.45819921  0.79016032  0.76262209     1.73200
Fe305      Fe  0.04397338  0.78663312  0.72537938     1.54400
O306        O  0.04676093  0.83743578  0.67850492    -0.82100
O307        O  0.48386359  0.73915194  0.79447725    -0.80400
O308        O  0.00511945  0.89655205  0.68994765    -0.84600
O309        O  0.05915575  0.90035997  0.74633461    -0.79400
O310        O  0.51515652  0.74294507  0.69594467    -0.81200
O311        O  0.45622821  0.83493619  0.81324081    -0.83900
C312        C  0.08457491  0.87129028  0.75371390     0.96800
C313        C  0.02724645  0.87436811  0.66814542     1.04300
O314        O  0.50208648  0.82338679  0.74843709    -1.12900
O315        O  0.42716281  0.83678737  0.73154091    -0.75400
O316        O  0.44873105  0.90682813  0.75233841    -0.78800
O317        O  0.07932146  0.82586392  0.75795888    -0.79500
C318        C  0.42294651  0.88116447  0.74063213     0.95700
O319        O  0.50187824  0.88900213  0.80861053    -0.77500
O320        O  0.45809181  0.74336239  0.71371280    -0.82700
C321        C  0.01585387  0.71970630  0.79222021     0.98300
C322        C  0.48321934  0.72973109  0.69086343     1.04300
O323        O  0.04176119  0.73406770  0.77063728    -0.78300
C324        C  0.47785524  0.86676089  0.82767742     1.02600
C325        C  0.49537855  0.97097825  0.96657752     0.01900
C326        C  0.99923163  0.02412527  0.96025172     0.01900
C327        C  0.99665350  0.05012803  0.99463889    -0.18700
C328        C  0.99380756  0.03228105  0.53054339     0.01900
C329        C  0.49510036  0.98009090  0.53743200     0.01900
C330        C  0.49785999  0.94626282  0.00149679    -0.18700
H331        H  0.49963870  0.90644126  0.00146964     0.03900
H332        H  0.99679549  0.09008894  0.99422392     0.03900
C333        C  0.02855694  0.89403332  0.62933372    -0.06500
C334        C  0.49950003  0.87699174  0.61066370    -0.17600
C335        C  0.48629914  0.90633314  0.58119128     0.10700
C336        C  0.00552176  0.95251271  0.56748219    -0.06400
C337        C  0.03333566  0.96843005  0.59109331    -0.17700
C338        C  0.04431544  0.94044564  0.62238678     0.10700
S339        S  0.44687289  0.88394725  0.55735916    -0.32600
S340        S  0.07646021  0.96787363  0.65408760    -0.32600
H341        H  0.08631784  0.92425613  0.67252736     0.28700
H342        H  0.43581051  0.92886800  0.54167778     0.28700
H343        H  0.48534541  0.84352226  0.61822620     0.19300
H344        H  0.04668150  0.00297177  0.58518621     0.19300
C345        C  0.47610716  0.88098509  0.86797862    -0.06500
C346        C  0.45056790  0.91621751  0.87912902    -0.17600
C347        C  0.45595253  0.94599499  0.91136145     0.10700
C348        C  0.48811321  0.94138204  0.93207114    -0.06400
C349        C  0.01397482  0.90580633  0.91653146    -0.17700
C350        C  0.00832663  0.87466894  0.88549397     0.10700
S351        S  0.42109954  0.98931378  0.92408291    -0.32600
S352        S  0.04329445  0.83142851  0.87322245    -0.32600
H353        H  0.02122843  0.79864913  0.85320360     0.28700
H354        H  0.42659449  0.98768401  0.96380737     0.28700
H355        H  0.42743067  0.92258892  0.86138258     0.19300
H356        H  0.03832138  0.90200427  0.93279934     0.19300
C357        C  0.18657379  0.94270271  0.75332491    -0.06500
C358        C  0.17764242  0.91058716  0.72348484    -0.17600
C359        C  0.14560048  0.88417111  0.72430861     0.10700
C360        C  0.12118268  0.89103321  0.75512066    -0.06400
C361        C  0.13063081  0.92170595  0.78564704    -0.17700
C362        C  0.16355846  0.94617118  0.78571628     0.10700
S363        S  0.13650034  0.84491746  0.68389842    -0.32600
S364        S  0.17497447  0.97980044  0.82843968    -0.33200
H365        H  0.21224286  0.97538795  0.82395322     0.28700
H366        H  0.12199826  0.80620801  0.70555196     0.28700
H367        H  0.19550543  0.90677637  0.69898938     0.19300
H368        H  0.11230513  0.92640361  0.80966343     0.19300
C369        C  0.31927461  0.94788260  0.74302869    -0.06500
C370        C  0.32797531  0.91136380  0.76960253    -0.17600
C371        C  0.36122157  0.88806720  0.76841875     0.10700
C372        C  0.38681996  0.90212368  0.74054130    -0.06400
C373        C  0.37792111  0.93744867  0.71315375    -0.17700
C374        C  0.34396092  0.95921397  0.71325778     0.10700
S375        S  0.37034287  0.84326904  0.80498909    -0.32600
S376        S  0.33344406  0.99906607  0.67368313    -0.32600
H377        H  0.29618168  0.99291717  0.67576571     0.28700
H378        H  0.38246920  0.80686592  0.77925260     0.28700
H379        H  0.30907492  0.90196514  0.79216481     0.19300
H380        H  0.39725349  0.94732233  0.69114204     0.19300
C381        C  0.47360477  0.12529717  0.63372916    -0.06500
C382        C  0.44691768  0.09206187  0.62317992    -0.17600
C383        C  0.45181820  0.06106112  0.59135132     0.10700
C384        C  0.48434832  0.06283617  0.57050019    -0.06400
C385        C  0.50969220  0.09880547  0.57945606    -0.17700
C386        C  0.50441136  0.13035620  0.61047878     0.10700
S387        S  0.41652290  0.01982640  0.57750582    -0.32600
S388        S  0.53928675  0.17371237  0.62131599    -0.32600
H389        H  0.51689721  0.20656439  0.64158510     0.28700
H390        H  0.39304397  0.03074916  0.60813760     0.28700
H391        H  0.42356676  0.08789745  0.64150934     0.19300
H392        H  0.53403345  0.10174065  0.56247471     0.19300
C393        C  0.02227295  0.11159073  0.86096514    -0.06500
C394        C  0.04751294  0.07715495  0.87336184    -0.17600
C395        C  0.04077728  0.04821023  0.90576215     0.10700
C396        C  0.00752033  0.05253659  0.92526215    -0.06400
C397        C  0.48404078  0.08736580  0.91925085    -0.17700
C398        C  0.49164646  0.11637696  0.88724635     0.10700
S399        S  0.07565727  0.00676536  0.92071896    -0.32600
S400        S  0.45890954  0.16049668  0.87090011    -0.32600
H401        H  0.43123198  0.14673483  0.89624784     0.28700
H402        H  0.06894362  0.01922744  0.46249164     0.28700
H403        H  0.07181251  0.07120661  0.85675615     0.19300
H404        H  0.45909649  0.09245812  0.93482774     0.19300
C405        C  0.38449716  0.10162662  0.76312606    -0.06500
C406        C  0.37474058  0.06708295  0.79100618    -0.17600
C407        C  0.34090993  0.04501129  0.79071908     0.10700
C408        C  0.31710947  0.05532296  0.76045622    -0.06400
C409        C  0.32629541  0.09187622  0.73388530    -0.17700
C410        C  0.35948436  0.11524856  0.73502654     0.10700
S411        S  0.32941821  0.00557125  0.83043411    -0.32600
S412        S  0.36937163  0.15920549  0.69787812    -0.32600
H413        H  0.38452474  0.19421502  0.72244195     0.28700
H414        H  0.29217577  0.01104092  0.82743466     0.28700
H415        H  0.39346167  0.05757735  0.81327550     0.19300
H416        H  0.30808366  0.10071038  0.71097823     0.19300
C417        C  0.18517333  0.05194018  0.74273134    -0.06500
C418        C  0.17283624  0.08209747  0.77262015    -0.17600
C419        C  0.14051021  0.10752522  0.77000754     0.10700
C420        C  0.11954986  0.10269953  0.73679744    -0.06400
C421        C  0.13218989  0.07345991  0.70638086    -0.17700
C422        C  0.16515423  0.04889295  0.70862656     0.10700
S423        S  0.12671998  0.14334040  0.81104588    -0.32600
S424        S  0.18034690  0.01536143  0.66679746    -0.32600
H425        H  0.21710862  0.01875304  0.67416347     0.28700
H426        H  0.11441913  0.18354763  0.78962894     0.28700
H427        H  0.18830748  0.08520364  0.79855656     0.19300
H428        H  0.11633202  0.06984341  0.68076707     0.19300
C429        C  0.00792487  0.37900015  0.60088652    -0.06500
C430        C  0.03963226  0.35137229  0.60499946    -0.17600
C431        C  0.04554437  0.32179793  0.63764192     0.10700
C432        C  0.01913129  0.31937966  0.66698131    -0.06400
C433        C  0.48661923  0.34340886  0.66634849    -0.17700
C434        C  0.48137834  0.37149830  0.63349116     0.10700
S435        S  0.08659254  0.28738351  0.63960979    -0.32600
S436        S  0.43831533  0.40075842  0.62821289    -0.32600
H437        H  0.43748424  0.39768405  0.58806838     0.28700
H438        H  0.09368238  0.30103508  0.67761493     0.28700
H439        H  0.06008341  0.35331920  0.58284046     0.19300
H440        H  0.46464986  0.34135146  0.68678399     0.19300
C441        C  0.48326465  0.29951126  0.84742702    -0.06500
C442        C  0.45779887  0.33759416  0.84868022    -0.17600
C443        C  0.45744188  0.37246180  0.87859283     0.10700
C444        C  0.48353294  0.36997984  0.90765370    -0.06400
C445        C  0.00655514  0.33017151  0.90121733    -0.17700
C446        C  0.00560449  0.29506145  0.87190765     0.10700
S447        S  0.42372547  0.42001384  0.87749561    -0.32600
S448        S  0.03510569  0.24234464  0.87538432    -0.32600
H449        H  0.04804946  0.25178257  0.91231506     0.28700
H450        H  0.42307639  0.42922183  0.91712626     0.28700
H451        H  0.43894136  0.34134912  0.82556197     0.19300
H452        H  0.02584859  0.32648839  0.92390050     0.19300
C453        C  0.48050384  0.62905295  0.59409200    -0.06500
C454        C  0.45215310  0.62829132  0.62114126    -0.17600
C455        C  0.45036946  0.66226347  0.65187822     0.10700
C456        C  0.47755722  0.69803897  0.65598661    -0.06400
C457        C  0.00364795  0.70224724  0.62116759    -0.17700
C458        C  0.00615423  0.66845714  0.59108102     0.10700
S459        S  0.41432338  0.65592444  0.68597405    -0.32600
S460        S  0.04532450  0.67192639  0.56052139    -0.32600
H461        H  0.05095937  0.62079318  0.55788584     0.28700
H462        H  0.40415794  0.70573250  0.68347467     0.28700
H463        H  0.43196419  0.59992340  0.61903188     0.19300
H464        H  0.02444774  0.72980112  0.62307026     0.19300
C465        C  0.01928484  0.68063953  0.82217870    -0.06500
C466        C  0.48784529  0.65165773  0.83267949    -0.17600
C467        C  0.48281302  0.62193164  0.86503690     0.10700
C468        C  0.01078055  0.62078300  0.88861260    -0.06400
C469        C  0.04118673  0.65065305  0.88365572    -0.17700
C470        C  0.04586167  0.68010363  0.85068706     0.10700
S471        S  0.44265430  0.58537496  0.86957303    -0.32600
S472        S  0.08538257  0.71738248  0.84737079    -0.32600
H473        H  0.09298253  0.70399929  0.80922761     0.28700
H474        H  0.42940466  0.59456495  0.83274888     0.28700
H475        H  0.46731146  0.65221710  0.81109062     0.19300
H476        H  0.06159963  0.65056112  0.90539501     0.19300
N477        N  0.49901217  0.42735997  0.00497843    -0.37000
N478        N  0.99540206  0.49380938  0.43585199    -0.57600
N479        N  0.99745094  0.57295333  0.49013063    -0.37000
N480        N  0.99489085  0.50639978  0.05378312    -0.57600
C481        C  0.48841719  0.39157217  0.47441168     0.26600
C482        C  0.49485241  0.40188666  0.03801896     0.26600
C483        C  0.99566357  0.59856583  0.45692795     0.26600
C484        C  0.98421747  0.60658978  0.02019254     0.26600
C485        C  0.49954957  0.45107405  0.42127660     0.35200
C486        C  0.00732459  0.52944752  0.41194204     0.35200
C487        C  0.50637018  0.47009689  0.08328688     0.35200
C488        C  0.99589605  0.54889867  0.07410338     0.35200
C489        C  0.47891977  0.34582360  0.48901962    -0.22300
C490        C  0.47995813  0.35637826  0.03020002    -0.22300
C491        C  0.98180455  0.64502578  0.46439826    -0.22300
C492        C  0.97143780  0.65001509  0.00436753    -0.22300
C493        C  0.51207175  0.46061018  0.38451302    -0.23300
C494        C  0.01585122  0.50936642  0.37644970    -0.23300
C495        C  0.51533130  0.48972643  0.11854011    -0.23300
C496        C  0.00741591  0.53944494  0.11097013    -0.23300
C497        C  0.48882107  0.40428564  0.43482191    -0.18700
C498        C  0.50443534  0.41905240  0.07486026    -0.18700
C499        C  0.98561048  0.59591604  0.06018705    -0.18700
C500        C  0.00595875  0.58050508  0.42016235    -0.18700
H501        H  0.46885265  0.31451693  0.47327366     0.14200
H502        H  0.47340022  0.32768086  0.05052587     0.14200
H503        H  0.97717068  0.67416708  0.44394842     0.14200
H504        H  0.95876507  0.68039060  0.01943930     0.14200
H505        H  0.51616977  0.43449316  0.36139638     0.12500
H506        H  0.02527437  0.52854996  0.35117295     0.12500
H507        H  0.52447285  0.47005804  0.14350787     0.12500
H508        H  0.01095618  0.56568200  0.13398197     0.12500
H509        H  0.51316808  0.46004290  0.00206294     0.25800
H510        H  0.01063722  0.53957392  0.49349533     0.25800
Fe511      Fe  0.50162371  0.10348221  0.24854292     1.65800
Fe512      Fe  0.54464391  0.20925796  0.26383413     1.73200
Fe513      Fe  0.95799261  0.20995293  0.23244796     1.54400
O514        O  0.95704339  0.16585636  0.18151672    -0.82100
O515        O  0.51834003  0.25860014  0.29749731    -0.80400
O516        O  0.00171248  0.10948898  0.18629737    -0.84600
O517        O  0.94706235  0.09365114  0.24189654    -0.79400
O518        O  0.48467324  0.26212705  0.20644454    -0.81200
O519        O  0.54526917  0.16183140  0.31309276    -0.83900
C520        C  0.92150304  0.11949326  0.25466185     0.96800
C521        C  0.97863170  0.13316398  0.16716842     1.04300
O522        O  0.50167140  0.17514209  0.24977974    -1.12900
O523        O  0.57795230  0.16472337  0.23169846    -0.75400
O524        O  0.55665863  0.09351913  0.25019536    -0.78800
O525        O  0.92609901  0.16367744  0.26371777    -0.79500
C526        C  0.58259552  0.12013617  0.23997787     0.95700
O527        O  0.50161145  0.10489540  0.30572960    -0.77500
O528        O  0.54316945  0.25873264  0.21653097    -0.82700
C529        C  0.98508632  0.26919180  0.30232117     0.98300
C530        C  0.51606097  0.27684102  0.19930077     1.04300
O531        O  0.95879277  0.25417307  0.28238636    -0.78300
C532        C  0.52362343  0.12855154  0.32617539     1.02600
C533        C  0.71921531  0.02279377  0.25132510     0.01900
C534        C  0.72042452  0.97085477  0.25446893     0.01900
C535        C  0.75356582  0.94669650  0.25260448    -0.18700
C536        C  0.78539587  0.97361631  0.25068793     0.01900
C537        C  0.78422929  0.02539736  0.25410373     0.01900
C538        C  0.75116036  0.04965415  0.25279712    -0.18700
H539        H  0.75029847  0.08956776  0.25265527     0.03900
H540        H  0.75460293  0.90678501  0.25260798     0.03900
Fe541      Fe  0.00603599  0.89515406  0.24968763     1.65800
Fe542      Fe  0.95908126  0.79178137  0.26151244     1.73200
Fe543      Fe  0.54421134  0.78695575  0.23411974     1.54400
O544        O  0.54774628  0.83767204  0.18734760    -0.82100
O545        O  0.98449841  0.73945497  0.29206545    -0.80400
O546        O  0.50705525  0.89818858  0.19839769    -0.84600
O547        O  0.56095447  0.90008461  0.25485806    -0.79400
O548        O  0.01364417  0.74459619  0.19230300    -0.81200
O549        O  0.95961591  0.83594706  0.31253914    -0.83900
C550        C  0.58580318  0.87034559  0.26262106     0.96800
C551        C  0.52847941  0.87461629  0.17654918     1.04300
O552        O  0.00308312  0.82355918  0.24627004    -1.12900
O553        O  0.92798786  0.83984678  0.23187596    -0.75400
O554        O  0.95111712  0.90885296  0.25267691    -0.78800
O555        O  0.57983540  0.82512282  0.26715299    -0.79500
C556        C  0.92459500  0.88406828  0.24170494     0.95700
O557        O  0.00595367  0.88862647  0.30662985    -0.77500
O558        O  0.95697908  0.74605212  0.21197154    -0.82700
C559        C  0.51465235  0.71994806  0.30013789     0.98300
C560        C  0.98130979  0.73276915  0.18796762     1.04300
O561        O  0.54097042  0.73366558  0.27884706    -0.78300
C562        C  0.98200158  0.86722621  0.32637567     1.02600
C563        C  0.99780982  0.97821147  0.46226964     0.01900
C564        C  0.49768374  0.03009545  0.46694840     0.01900
C565        C  0.49365717  0.05635157  0.50113703    -0.18700
C566        C  0.49438567  0.02413141  0.03530425     0.01900
C567        C  0.99812099  0.97351883  0.03049380     0.01900
C568        C  0.00010662  0.95427281  0.49736155    -0.18700
H569        H  0.00295198  0.91454829  0.49765776     0.03900
H570        H  0.49339583  0.09630233  0.50049956     0.03900
C571        C  0.52903217  0.89164837  0.13688129    -0.06500
C572        C  0.00051803  0.87459805  0.10772198    -0.17600
C573        C  0.98879906  0.90132271  0.07609660     0.10700
C574        C  0.50670380  0.94461423  0.07176380    -0.06400
C575        C  0.53532435  0.96134860  0.09399480    -0.17700
C576        C  0.54606679  0.93614611  0.12678485     0.10700
S577        S  0.95000326  0.87752043  0.05197306    -0.32600
S578        S  0.57997444  0.96463307  0.15571181    -0.32600
H579        H  0.58699099  0.92413823  0.17924614     0.28700
H580        H  0.93866949  0.92196687  0.03571132     0.28700
H581        H  0.98574021  0.84212874  0.11648909     0.19300
H582        H  0.54927979  0.99474112  0.08600282     0.19300
C583        C  0.98056264  0.88290576  0.36640868    -0.06500
C584        C  0.95396915  0.91677833  0.37728520    -0.17600
C585        C  0.95880703  0.94818143  0.40863262     0.10700
C586        C  0.99163621  0.94728475  0.42828912    -0.06400
C587        C  0.51385692  0.90994733  0.42532080    -0.17700
C588        C  0.50846105  0.87743846  0.39506136     0.10700
S589        S  0.92224655  0.98837221  0.42204339    -0.32600
S590        S  0.54249719  0.83183394  0.38553157    -0.32600
H591        H  0.51981329  0.79907026  0.36626260     0.28700
H592        H  0.92806446  0.98616095  0.46171177     0.28700
H593        H  0.93026916  0.92078687  0.36003792     0.19300
H594        H  0.53768369  0.90617737  0.44244464     0.19300
C595        C  0.68756989  0.94111057  0.25955542    -0.06500
C596        C  0.67837675  0.90787496  0.23059356    -0.17600
C597        C  0.64639518  0.88155333  0.23241161     0.10700
C598        C  0.62257732  0.88911484  0.26361098    -0.06400
C599        C  0.63233658  0.92087564  0.29334791    -0.17700
C600        C  0.66505954  0.94576028  0.29222839     0.10700
S601        S  0.63625969  0.84214063  0.19240886    -0.32600
S602        S  0.67671064  0.98192697  0.33361442    -0.33200
H603        H  0.71396008  0.97800686  0.32865603     0.28700
H604        H  0.62216302  0.80368101  0.21463957     0.28700
H605        H  0.69583209  0.90343917  0.20582242     0.19300
H606        H  0.61426632  0.92647971  0.31747028     0.19300
C607        C  0.81976919  0.94722712  0.24571468    -0.06500
C608        C  0.83153788  0.91762529  0.27572911    -0.17600
C609        C  0.86545915  0.89633644  0.27467341     0.10700
C610        C  0.88860157  0.90548606  0.24325119    -0.06400
C611        C  0.87652476  0.93376173  0.21254675    -0.17700
C612        C  0.84193903  0.95361425  0.21297469     0.10700
S613        S  0.87793443  0.85904687  0.31488055    -0.32600
S614        S  0.82726278  0.98483008  0.17040934    -0.32600
H615        H  0.79053193  0.97644821  0.17618539     0.28700
H616        H  0.89125133  0.82003241  0.29232115     0.28700
H617        H  0.81440325  0.91192653  0.30056087     0.19300
H618        H  0.89379493  0.93942905  0.18782223     0.19300
C619        C  0.97732671  0.11893137  0.12698688    -0.06500
C620        C  0.95045621  0.08617252  0.11609609    -0.17600
C621        C  0.95541638  0.05503083  0.08438557     0.10700
C622        C  0.98823661  0.05599032  0.06406267    -0.06400
C623        C  0.01406334  0.09102683  0.07358921    -0.17700
C624        C  0.00876181  0.12275292  0.10452548     0.10700
S625        S  0.91978798  0.01466813  0.06993820    -0.32600
S626        S  0.04412204  0.16514917  0.11592140    -0.32600
H627        H  0.02209145  0.19889664  0.13576854     0.28700
H628        H  0.89484563  0.02928626  0.09824605     0.28700
H629        H  0.92675549  0.08263902  0.13396006     0.19300
H630        H  0.03868196  0.09324815  0.05700534     0.19300
C631        C  0.52266568  0.11487134  0.36663459    -0.06500
C632        C  0.54722232  0.07982960  0.37954661    -0.17600
C633        C  0.54006093  0.05220756  0.41254990     0.10700
C634        C  0.50690281  0.05821839  0.43201027    -0.06400
C635        C  0.98323411  0.09395715  0.41420058    -0.17700
C636        C  0.99036973  0.12295252  0.38203825     0.10700
S637        S  0.57432860  0.01030315  0.42830737    -0.32600
S638        S  0.95721516  0.16655277  0.36585085    -0.32600
H639        H  0.93350278  0.16146432  0.39713098     0.28700
H640        H  0.56807293  0.00841246  0.96709056     0.28700
H641        H  0.57125001  0.07230591  0.36286086     0.19300
H642        H  0.95816212  0.09826427  0.42968529     0.19300
C643        C  0.88527194  0.09905328  0.25623723    -0.06500
C644        C  0.87464079  0.07075804  0.28778833    -0.17600
C645        C  0.84065992  0.04927270  0.28928360     0.10700
C646        C  0.81749361  0.05442930  0.25772474    -0.06400
C647        C  0.82767700  0.08456155  0.22708638    -0.17700
C648        C  0.86113016  0.10707497  0.22611306     0.10700
S649        S  0.82836520  0.01678703  0.33245816    -0.32600
S650        S  0.87220105  0.14336201  0.18459699    -0.32600
H651        H  0.88769377  0.18200187  0.20537698     0.28700
H652        H  0.79116896  0.02017864  0.32787454     0.28700
H653        H  0.89280089  0.06564360  0.31141461     0.19300
H654        H  0.80989369  0.08915071  0.20307268     0.19300
C655        C  0.68510277  0.04979412  0.24620206    -0.06500
C656        C  0.67362331  0.08178902  0.27535367    -0.17600
C657        C  0.64101786  0.10667442  0.27306016     0.10700
C658        C  0.61897693  0.09941192  0.24095597    -0.06400
C659        C  0.63074576  0.06836675  0.21126527    -0.17700
C660        C  0.66393017  0.04436694  0.21310927     0.10700
S661        S  0.62824526  0.14496078  0.31313899    -0.32600
S662        S  0.67795715  0.00863204  0.17193761    -0.32600
H663        H  0.71493237  0.01289349  0.17770417     0.28700
H664        H  0.61463043  0.18342527  0.29074452     0.28700
H665        H  0.68996878  0.08673132  0.30048499     0.19300
H666        H  0.61406809  0.06303616  0.18645293     0.19300
C667        C  0.50821050  0.38289065  0.10705026    -0.06500
C668        C  0.53896002  0.35291726  0.10929044    -0.17600
C669        C  0.54430526  0.32047053  0.14033434     0.10700
C670        C  0.51812986  0.31709329  0.16983816    -0.06400
C671        C  0.98548244  0.34643069  0.15984080    -0.17700
C672        C  0.98067568  0.37786104  0.12869614     0.10700
S673        S  0.58417928  0.28340933  0.13985707    -0.32600
S674        S  0.93843260  0.40991299  0.12565985    -0.32600
H675        H  0.93690432  0.41073691  0.08549584     0.28700
H676        H  0.59296798  0.29510499  0.17782158     0.28700
H677        H  0.55908849  0.35509971  0.08680688     0.19300
H678        H  0.96372257  0.34345822  0.18046095     0.19300
C679        C  0.98014833  0.29849915  0.33821640    -0.06500
C680        C  0.95361041  0.33506753  0.34098783    -0.17600
C681        C  0.95266653  0.36827219  0.37205945     0.10700
C682        C  0.97889396  0.36506125  0.40100102    -0.06400
C683        C  0.50768654  0.32706773  0.40322322    -0.17700
C684        C  0.50793310  0.29358017  0.37286184     0.10700
S685        S  0.91861971  0.41543737  0.37212142    -0.32600
S686        S  0.54145112  0.24532832  0.37347016    -0.32600
H687        H  0.56111065  0.26222049  0.40492879     0.28700
H688        H  0.91890454  0.42444984  0.41176726     0.28700
H689        H  0.93459419  0.33929711  0.31806740     0.19300
H690        H  0.52808886  0.32486650  0.42488080     0.19300
C691        C  0.97940761  0.63633251  0.08923669    -0.06500
C692        C  0.95294461  0.63074103  0.11815389    -0.17600
C693        C  0.95018451  0.66368719  0.14949171     0.10700
C694        C  0.97429981  0.70352010  0.15223570    -0.06400
C695        C  0.50205058  0.70958625  0.12790076    -0.17700
C696        C  0.50567265  0.67576026  0.09792543     0.10700
S697        S  0.91744746  0.65083658  0.18618138    -0.32600
S698        S  0.54393990  0.68268099  0.06645867    -0.32600
H699        H  0.55177148  0.63210860  0.06358138     0.28700
H700        H  0.90439360  0.69946086  0.18735336     0.28700
H701        H  0.93533538  0.59917002  0.11717175     0.19300
H702        H  0.52153647  0.73896818  0.12949714     0.19300
C703        C  0.51715366  0.68033116  0.32986888    -0.06500
C704        C  0.98663276  0.65114614  0.32868040    -0.17600
C705        C  0.98196236  0.62017627  0.36018240     0.10700
C706        C  0.50925250  0.61599535  0.39397480    -0.06400
C707        C  0.54087561  0.64318199  0.38815027    -0.17700
C708        C  0.54510706  0.67536430  0.35665164     0.10700
S709        S  0.94002661  0.58764442  0.36406710    -0.32600
S710        S  0.58657154  0.70864279  0.35280604    -0.32600
H711        H  0.57201074  0.75237148  0.33849698     0.28700
H712        H  0.93844011  0.58584384  0.40422890     0.28700
H713        H  0.96481469  0.65430910  0.30866559     0.19300
H714        H  0.56238086  0.63948265  0.40845311     0.19300
N715        N  0.50018317  0.42025566  0.50346971    -0.37000
N716        N  0.99967311  0.49934599  0.93735176    -0.57600
N717        N  0.99895416  0.57860559  0.99183739    -0.37000
N718        N  0.99304123  0.50116991  0.55257847    -0.57600
C719        C  0.48651535  0.39896198  0.97614113     0.26600
C720        C  0.49782915  0.39372831  0.53621815     0.26600
C721        C  0.99579053  0.60351259  0.95840962     0.26600
C722        C  0.98423316  0.60204552  0.51863068     0.26600
C723        C  0.49995408  0.45687809  0.92280562     0.35200
C724        C  0.01250555  0.53541585  0.91448469     0.35200
C725        C  0.50529829  0.46250472  0.58239925     0.35200
C726        C  0.99388590  0.54374831  0.57275144     0.35200
C727        C  0.47425298  0.35476202  0.99121655    -0.22300
C728        C  0.48542433  0.34695154  0.52787254    -0.22300
C729        C  0.97917589  0.64833263  0.96550002    -0.22300
C730        C  0.97416482  0.64701341  0.50320501    -0.22300
C731        C  0.51331387  0.46605200  0.88635026    -0.23300
C732        C  0.02446785  0.51556444  0.87997654    -0.23300
C733        C  0.51177183  0.48191216  0.61839224    -0.23300
C734        C  0.00534990  0.53472426  0.60967842    -0.23300
C735        C  0.48898642  0.41019489  0.93643246    -0.18700
C736        C  0.50579229  0.41146773  0.57343031    -0.18700
C737        C  0.98462529  0.59086699  0.55850374    -0.18700
C738        C  0.00796185  0.58628838  0.92200569    -0.18700
H739        H  0.46299627  0.32408637  0.97566764     0.14200
H740        H  0.48064101  0.31720086  0.54783310     0.14200
H741        H  0.97299423  0.67661821  0.94481034     0.14200
H742        H  0.96328367  0.67848418  0.51849730     0.14200
H743        H  0.51819333  0.43962150  0.86361782     0.12500
H744        H  0.03522358  0.53515689  0.85550103     0.12500
H745        H  0.52031790  0.46235715  0.64365857     0.12500
H746        H  0.00888894  0.56116463  0.63255226     0.12500
H747        H  0.51230488  0.45442333  0.50090228     0.25800
H748        H  0.01397440  0.54669671  0.99544628     0.25800
Fe749      Fe  0.50176175  0.10427564  0.74848287     1.65800
Fe750      Fe  0.54526415  0.20922114  0.76768925     1.73200
Fe751      Fe  0.95890880  0.21387187  0.73452431     1.54400
O752        O  0.95720147  0.17199510  0.68268932    -0.82100
O753        O  0.51930671  0.25659151  0.80360217    -0.80400
O754        O  0.00196997  0.11562286  0.68555229    -0.84600
O755        O  0.94683597  0.09757160  0.74063398    -0.79400
O756        O  0.48484426  0.26290808  0.71072488    -0.81200
O757        O  0.54673410  0.15931254  0.81521961    -0.83900
C758        C  0.92131456  0.12307092  0.75400514     0.96800
C759        C  0.97874629  0.14014215  0.66726305     1.04300
O760        O  0.50203476  0.17582124  0.75272042    -1.12900
O761        O  0.57858501  0.16695399  0.73400219    -0.75400
O762        O  0.55676929  0.09396486  0.74711034    -0.78800
O763        O  0.92602092  0.16693690  0.76418367    -0.79500
C764        C  0.58284263  0.12146650  0.73888770     0.95700
O765        O  0.50394742  0.10162553  0.80550365    -0.77500
O766        O  0.54325108  0.26050515  0.72147713    -0.82700
C767        C  0.98669589  0.27107149  0.80516594     0.98300
C768        C  0.51619586  0.27770015  0.70357225     1.04300
O769        O  0.96021910  0.25700479  0.78507409    -0.78300
C770        C  0.52561915  0.12458343  0.82682547     1.02600
C771        C  0.71939438  0.02389854  0.75009426     0.01900
C772        C  0.72011069  0.97199111  0.75431490     0.01900
C773        C  0.75312587  0.94741281  0.75270004    -0.18700
C774        C  0.78526028  0.97372477  0.75009444     0.01900
C775        C  0.78461176  0.02565113  0.75320682     0.01900
C776        C  0.75164362  0.05024640  0.75149404    -0.18700
H777        H  0.75111231  0.09015342  0.75081220     0.03900
H778        H  0.75380883  0.90749356  0.75300011     0.03900
Fe779      Fe  0.00379646  0.89377738  0.74696278     1.65800
Fe780      Fe  0.95858762  0.78854763  0.75826664     1.73200
Fe781      Fe  0.54381323  0.78743651  0.73075083     1.54400
O782        O  0.54662738  0.83740647  0.68329607    -0.82100
O783        O  0.98469088  0.73728276  0.78943239    -0.80400
O784        O  0.50578233  0.89764528  0.69471435    -0.84600
O785        O  0.55904878  0.90172713  0.75189317    -0.79400
O786        O  0.01495882  0.74295368  0.69038732    -0.81200
O787        O  0.95730654  0.83304666  0.80911473    -0.83900
C788        C  0.58436897  0.87253658  0.75926718     0.96800
C789        C  0.52724791  0.87443089  0.67278922     1.04300
O790        O  0.00223116  0.82210384  0.74360617    -1.12900
O791        O  0.92682961  0.83519091  0.72799323    -0.75400
O792        O  0.94866438  0.90519605  0.74851948    -0.78800
O793        O  0.57910180  0.82705762  0.76305934    -0.79500
C794        C  0.92267018  0.87945969  0.73741806     0.95700
O795        O  0.00261798  0.88756908  0.80378880    -0.77500
O796        O  0.95808537  0.74233484  0.70901075    -0.82700
C797        C  0.51497756  0.72160354  0.79798975     0.98300
C798        C  0.98300691  0.72959438  0.68557533     1.04300
O799        O  0.54121486  0.73569890  0.77670811    -0.78300
C800        C  0.97886236  0.86526825  0.82317909     1.02600
C801        C  0.99598531  0.97232718  0.96085956     0.01900
C802        C  0.49896944  0.02268446  0.96597379     0.01900
C803        C  0.49649484  0.04872587  0.00030421    -0.18700
C804        C  0.49084545  0.03200808  0.53626735     0.01900
C805        C  0.99848806  0.98042747  0.53184732     0.01900
C806        C  0.99814383  0.94766238  0.99580964    -0.18700
H807        H  0.99987577  0.90782272  0.99585900     0.03900
H808        H  0.49671982  0.08868421  0.99981928     0.03900
C809        C  0.52767156  0.89290564  0.63356759    -0.06500
C810        C  0.00186218  0.87714366  0.60490998    -0.17600
C811        C  0.98926296  0.90634256  0.57508647     0.10700
C812        C  0.50286571  0.95208858  0.57284501    -0.06400
C813        C  0.53207710  0.96699170  0.59490344    -0.17700
C814        C  0.54423820  0.93834318  0.62534486     0.10700
S815        S  0.95065335  0.88350206  0.55002783    -0.32600
S816        S  0.57933559  0.96328950  0.65445197    -0.32600
H817        H  0.58991281  0.91829368  0.67046056     0.28700
H818        H  0.93894425  0.92886912  0.53563348     0.28700
H819        H  0.98810507  0.84305586  0.61158407     0.19300
H820        H  0.54578495  0.00104148  0.58820468     0.19300
C821        C  0.97728646  0.88014119  0.86334992    -0.06500
C822        C  0.95136009  0.91493973  0.87436538    -0.17600
C823        C  0.95664778  0.94559970  0.90612473     0.10700
C824        C  0.98909977  0.94239692  0.92644194    -0.06400
C825        C  0.51253465  0.90431491  0.92200013    -0.17700
C826        C  0.50677165  0.87409603  0.89046369     0.10700
S827        S  0.92127964  0.98816782  0.91879399    -0.32600
S828        S  0.54118139  0.83018844  0.87803217    -0.32600
H829        H  0.51846452  0.79793113  0.85836531     0.28700
H830        H  0.92720911  0.98763646  0.95846003     0.28700
H831        H  0.92794363  0.92028688  0.85684111     0.19300
H832        H  0.53668597  0.89953082  0.93844503     0.19300
C833        C  0.68687872  0.94255578  0.75920654    -0.06500
C834        C  0.67918210  0.90643884  0.73175622    -0.17600
C835        C  0.64674654  0.88106040  0.73254934     0.10700
C836        C  0.62096982  0.89216177  0.76122774    -0.06400
C837        C  0.62919470  0.92662016  0.78970224    -0.17700
C838        C  0.66228259  0.95068519  0.78973043     0.10700
S839        S  0.63849235  0.83848255  0.69402524    -0.32600
S840        S  0.67177066  0.98994103  0.83006502    -0.33200
H841        H  0.70917016  0.98520436  0.82777134     0.28700
H842        H  0.62683619  0.80023155  0.71804478     0.28700
H843        H  0.69805588  0.89931919  0.70859674     0.19300
H844        H  0.60974592  0.93468092  0.81212286     0.19300
C845        C  0.81915399  0.94632751  0.74384396    -0.06500
C846        C  0.82950577  0.91203053  0.77145304    -0.17600
C847        C  0.86256280  0.88835168  0.76889486     0.10700
C848        C  0.88643441  0.90012690  0.73867865    -0.06400
C849        C  0.87571040  0.93295341  0.71020500    -0.17700
C850        C  0.84178026  0.95479537  0.71172000     0.10700
S851        S  0.87347018  0.84548753  0.80625204    -0.32600
S852        S  0.82848308  0.99095841  0.67100903    -0.32600
H853        H  0.79146554  0.98438970  0.67602983     0.28700
H854        H  0.88579984  0.80848848  0.78114453     0.28700
H855        H  0.81201252  0.90451117  0.79568770     0.19300
H856        H  0.89357303  0.94084016  0.68635562     0.19300
C857        C  0.97666454  0.12715125  0.62692344    -0.06500
C858        C  0.94989260  0.09398885  0.61652932    -0.17600
C859        C  0.95488783  0.06227087  0.58520406     0.10700
C860        C  0.98753880  0.06333241  0.56461752    -0.06400
C861        C  0.01300408  0.09925975  0.57327951    -0.17700
C862        C  0.00770462  0.13140781  0.60392145     0.10700
S863        S  0.91969745  0.02053700  0.57202824    -0.32600
S864        S  0.04271423  0.17460683  0.61445558    -0.32600
H865        H  0.02052672  0.20776711  0.63469459     0.28700
H866        H  0.89321945  0.04062183  0.59645380     0.28700
H867        H  0.92646695  0.09012291  0.63479113     0.19300
H868        H  0.03740946  0.10171486  0.55634944     0.19300
C869        C  0.52401495  0.10924681  0.86683604    -0.06500
C870        C  0.54886061  0.07459331  0.87974354    -0.17600
C871        C  0.54143463  0.04589953  0.91212170     0.10700
C872        C  0.50793917  0.05081864  0.93107209    -0.06400
C873        C  0.98318698  0.08884284  0.91392204    -0.17700
C874        C  0.99016329  0.11823965  0.88193499     0.10700
S875        S  0.57570258  0.00388050  0.92772349    -0.32600
S876        S  0.95706939  0.16240423  0.86648333    -0.32600
H877        H  0.93134153  0.15224071  0.89504202     0.28700
H878        H  0.56695403  0.01557933  0.46767600     0.28700
H879        H  0.57333286  0.06823512  0.86351603     0.19300
H880        H  0.95839319  0.09341542  0.92986774     0.19300
C881        C  0.88515375  0.10206296  0.75569604    -0.06500
C882        C  0.87608519  0.07000657  0.78555648    -0.17600
C883        C  0.84252724  0.04726269  0.78699550     0.10700
C884        C  0.81811624  0.05467282  0.75679012    -0.06400
C885        C  0.82679115  0.08841036  0.72785145    -0.17700
C886        C  0.85986686  0.11218878  0.72703176     0.10700
S887        S  0.83222454  0.01076513  0.82873686    -0.32600
S888        S  0.86913095  0.15230323  0.68714516    -0.32600
H889        H  0.88611541  0.18879269  0.70884689     0.28700
H890        H  0.79490454  0.01614062  0.82682347     0.28700
H891        H  0.89514376  0.06302460  0.80805819     0.19300
H892        H  0.80815502  0.09485057  0.70486097     0.19300
C893        C  0.68551408  0.05146082  0.74415424    -0.06500
C894        C  0.67605900  0.08840790  0.77052500    -0.17600
C895        C  0.64333813  0.11331668  0.76807990     0.10700
C896        C  0.61921450  0.10059121  0.73893343    -0.06400
C897        C  0.62905976  0.06498587  0.71171013    -0.17700
C898        C  0.66246510  0.04161375  0.71316009     0.10700
S899        S  0.63187777  0.15958435  0.80346656    -0.32600
S900        S  0.67465464  0.00194406  0.67355752    -0.32600
H901        H  0.71183661  0.00733105  0.67697137     0.28700
H902        H  0.66258981  0.15432529  0.82595217     0.28700
H903        H  0.69403729  0.09670425  0.79371761     0.19300
H904        H  0.61089815  0.05616666  0.68878899     0.19300
C905        C  0.50904711  0.37583129  0.60603741    -0.06500
C906        C  0.54134218  0.35024990  0.61223417    -0.17600
C907        C  0.54621574  0.32050127  0.64502334     0.10700
C908        C  0.51820370  0.31595288  0.67246290    -0.06400
C909        C  0.98834863  0.34914205  0.66310737    -0.17700
C910        C  0.98197984  0.37711683  0.63042736     0.10700
S911        S  0.58807208  0.28850188  0.64957246    -0.32600
S912        S  0.93962653  0.40900424  0.62800881    -0.32600
H913        H  0.93649531  0.40652339  0.58799261     0.28700
H914        H  0.59318942  0.30415518  0.68752230     0.28700
H915        H  0.56303745  0.35396593  0.59163785     0.19300
H916        H  0.96767602  0.34858104  0.68511724     0.19300
C917        C  0.98228185  0.30171680  0.84041416    -0.06500
C918        C  0.95835879  0.34165278  0.84127172    -0.17600
C919        C  0.95883586  0.37623454  0.87140277     0.10700
C920        C  0.98414317  0.37137358  0.90111917    -0.06400
C921        C  0.50749778  0.33039246  0.90756524    -0.17700
C922        C  0.50735544  0.29482261  0.87847675     0.10700
S923        S  0.92736748  0.42659279  0.86967955    -0.32600
S924        S  0.53816537  0.24348838  0.88206170    -0.32600
H925        H  0.55555835  0.25855994  0.91557076     0.28700
H926        H  0.92578957  0.43484827  0.90942162     0.28700
H927        H  0.94026458  0.34712448  0.81765994     0.19300
H928        H  0.52709199  0.32820429  0.93006477     0.19300
C929        C  0.98006285  0.63157323  0.58732874    -0.06500
C930        C  0.95174276  0.63007498  0.61439753    -0.17600
C931        C  0.94996888  0.66321283  0.64565563     0.10700
C932        C  0.97711903  0.69893000  0.65022005    -0.06400
C933        C  0.50426045  0.70038630  0.62706837    -0.17700
C934        C  0.50670412  0.66588730  0.59743597     0.10700
S935        S  0.91405378  0.65577250  0.67977306    -0.32600
S936        S  0.54581199  0.66859502  0.56673483    -0.32600
H937        H  0.55128785  0.61738474  0.56469257     0.28700
H938        H  0.90397799  0.70569601  0.67847087     0.28700
H939        H  0.93166233  0.60160229  0.61197332     0.19300
H940        H  0.52514230  0.72785660  0.62868164     0.19300
C941        C  0.51780277  0.68268170  0.82825078    -0.06500
C942        C  0.98964519  0.64914101  0.82689401    -0.17600
C943        C  0.98499934  0.61982520  0.85953385     0.10700
C944        C  0.50855287  0.62178749  0.89416122    -0.06400
C945        C  0.53909503  0.65156109  0.88970798    -0.17700
C946        C  0.54415304  0.68150252  0.85703059     0.10700
S947        S  0.94543760  0.58208858  0.86441513    -0.32600
S948        S  0.58392190  0.71837569  0.85447540    -0.32600
H949        H  0.59167924  0.70592376  0.81619299     0.28700
H950        H  0.92966660  0.59521512  0.82953159     0.28700
H951        H  0.96909272  0.64904240  0.80532145     0.19300
H952        H  0.55936659  0.65093721  0.91159418     0.19300
loop_ 
_geom_bond_atom_site_label_1 
_geom_bond_atom_site_label_2 
_geom_bond_distance 
_geom_bond_site_symmetry_2 
_ccdc_geom_bond_type 
N1            C6   1.353   1_456  A
N1          C243   1.356   1_455  A
N1           H33   1.040       .  S
N2           C10   1.353       .  A
N2          C485   1.350       .  A
N3            C7   1.358       .  A
N3          C246   1.357       .  A
N3           H34   1.038       .  S
N4           C12   1.353       .  A
N4          C487   1.355       .  A
C5          N239   1.356       .  A
C5           C13   1.390       .  A
C5           C21   1.427       .  A
C6           C22   1.417   1_655  A
C6           C14   1.385       .  A
C7           C15   1.385       .  A
C7           C24   1.423       .  A
C8          N241   1.356   1_554  A
C8           C23   1.427       .  A
C8           C16   1.389       .  A
C9          N478   1.350       .  A
C9           C21   1.416       .  A
C9           C17   1.387   1_655  A
C10          C24   1.415       .  A
C10          C18   1.386       .  A
C11         N480   1.356   1_455  A
C11          C19   1.385       .  A
C11          C22   1.419       .  A
C12          C20   1.387       .  A
C12          C23   1.419       .  A
C13         C252   1.383       .  A
C13          H25   1.082       .  S
C14         C251   1.381   1_554  A
C14          H26   1.082       .  S
C15         C254   1.383       .  A
C15          H27   1.082       .  S
C16         C253   1.384   1_554  A
C16          H28   1.082       .  S
C17         C494   1.372       .  A
C17          H29   1.082       .  S
C18         C493   1.373       .  A
C18          H30   1.082       .  S
C19         C496   1.375       .  A
C19          H31   1.082       .  S
C20         C495   1.374       .  A
C20          H32   1.082       .  S
C21         C682   1.496       .  S
C22         C191   1.500       .  S
C23         C215   1.502       .  S
C24         C706   1.501       .  S
Fe35         O51   1.994       .  S
Fe35         O48   2.076       .  S
Fe35        O517   2.082   1_455  S
Fe35        O516   1.995       .  S
Fe35         O46   1.946       .  S
Fe36         O39   2.029       .  S
Fe36         O43   2.148       .  S
Fe36         O47   2.060       .  S
Fe36         O52   2.135       .  S
Fe36         O46   1.928       .  S
Fe37         O55   2.117       .  S
Fe37         O49   2.049       .  S
Fe37         O38   2.141       .  S
Fe37        O518   2.031       .  S
Fe37        O522   1.921       .  S
O38          C45   1.294       .  A
O39         C529   1.261   1_455  A
O40        Fe511   1.997       .  S
O40          C45   1.273       .  A
O41        Fe511   2.081       .  S
O41          C44   1.261       .  A
O42        Fe513   2.028       .  S
O42          C54   1.264   1_655  A
O43          C56   1.295       .  A
C44         C167   1.469       .  S
C44          O49   1.254       .  A
C45         C143   1.455       .  S
O46        Fe513   1.922   1_455  S
O47          C50   1.259       .  A
O48          C50   1.261       .  A
C50         C182   1.474       .  S
O51          C56   1.270       .  A
O52          C54   1.284       .  A
C53         C203   1.492       .  S
C53          O55   1.280       .  A
C53         O515   1.260       .  A
C54         C194   1.505       .  S
C56         C155   1.459       .  S
C57          C58   1.416   1_545  A
C57          C62   1.404       .  A
C57         C179   1.485       .  S
C58          C59   1.402       .  A
C58         C119   1.479       .  S
C59          C60   1.400       .  A
C59          H64   1.084       .  S
C60          C61   1.411   1_565  A
C60         C131   1.478       .  S
C61          C62   1.401       .  A
C61         C170   1.481       .  S
C62          H63   1.084       .  S
Fe65         O81   1.998       .  S
Fe65         O78   2.088       .  S
Fe65        O547   2.072       .  S
Fe65        O546   2.004       .  S
Fe65         O76   1.951       .  S
Fe66         O69   2.027       .  S
Fe66         O73   2.144       .  S
Fe66         O77   2.040       .  S
Fe66         O82   2.126       .  S
Fe66         O76   1.933       .  S
Fe67         O85   2.134       .  S
Fe67         O79   2.055       .  S
Fe67         O68   2.142       .  S
Fe67        O548   2.027       .  S
Fe67        O552   1.933       .  S
O68          C75   1.293       .  A
O69         C559   1.263       .  A
O70        Fe541   2.004       .  S
O70          C75   1.270       .  A
O71        Fe541   2.069       .  S
O71          C74   1.262       .  A
O72        Fe543   2.023       .  S
O72          C84   1.262       .  A
O73          C86   1.292       .  A
C74         C122   1.467       .  S
C74          O79   1.259       .  A
C75          C95   1.461       .  S
O76        Fe543   1.933       .  S
O77          C80   1.254       .  A
O78          C80   1.263       .  A
C80         C134   1.466       .  S
O81          C86   1.268       .  A
O82          C84   1.280       .  A
C83         C227   1.498       .  S
C83          O85   1.283       .  A
C83         O545   1.263   1_455  A
C84         C218   1.502       .  S
C86         C107   1.460       .  S
C87          C92   1.393       .  A
C87         C564   1.412   1_565  A
C87         C110   1.474       .  S
C88          C89   1.393       .  A
C88         C563   1.411   1_545  A
C88         C158   1.476   1_655  S
C89         C328   1.397       .  A
C89          H94   1.085       .  S
C90         C327   1.396   1_554  A
C90         C567   1.418   1_545  A
C90         C622   1.474       .  S
C91         C566   1.419   1_565  A
C91         C330   1.400       .  A
C91         C574   1.488       .  S
C92         C329   1.397       .  A
C92          H93   1.084       .  S
C95         C100   1.412       .  A
C95         C572   1.400       .  A
C96          C97   1.398       .  A
C96         C571   1.400       .  A
C96         H105   1.085       .  S
C97         C574   1.420       .  A
C97         S101   1.808       .  S
C98          C99   1.405       .  A
C98         C573   1.419   1_455  A
C98         C567   1.486   1_455  S
C99         C100   1.398       .  A
C99         H106   1.083       .  S
C100        S102   1.807       .  S
S101        H104   1.402       .  S
S102        H103   1.399       .  S
C107        C108   1.401       .  A
C107        C588   1.410       .  A
C108        C109   1.400       .  A
C108        H117   1.083       .  S
C109        C110   1.415       .  A
C109        S113   1.804       .  S
C110        C587   1.401       .  A
C111        C112   1.392       .  A
C111        C586   1.400   1_455  A
C111        H118   1.084       .  S
C112        C583   1.411   1_455  A
C112        S114   1.801       .  S
S113        H116   1.406       .  S
S114        H115   1.407       .  S
C119        C120   1.400       .  A
C119        C124   1.414       .  A
C120        C121   1.396       .  A
C120        H129   1.084       .  S
C121        C122   1.414       .  A
C121        S125   1.803       .  S
C122        C123   1.401       .  A
C123        C124   1.400       .  A
C123        H130   1.084       .  S
C124        S126   1.804       .  S
S125        H128   1.403       .  S
S126        H127   1.406       .  S
C131        C132   1.398       .  A
C131        C136   1.416       .  A
C132        C133   1.394       .  A
C132        H141   1.084       .  S
C133        C134   1.413       .  A
C133        S137   1.799       .  S
C134        C135   1.399       .  A
C135        C136   1.400       .  A
C135        H142   1.084       .  S
C136        S138   1.804       .  S
S137        H140   1.405       .  S
S138        H139   1.406       .  S
C143        C144   1.399       .  A
C143        C148   1.409       .  A
C144        C145   1.401       .  A
C144        H153   1.083       .  S
C145        C146   1.411       .  A
C145        S149   1.804       .  S
C146        C147   1.401       .  A
C146        C566   1.474       .  S
C147        C148   1.392       .  A
C147        H154   1.084       .  S
C148        S150   1.802       .  S
S149        H152   1.407       .  S
S150        H151   1.406       .  S
C155        C156   1.399       .  A
C155        C636   1.411   1_455  A
C156        C157   1.399       .  A
C156        H165   1.084       .  S
C157        C158   1.415       .  A
C157        S161   1.803       .  S
C158        C635   1.401   1_455  A
C159        C160   1.398       .  A
C159        C634   1.401       .  A
C159        H166   1.083       .  S
C160        C631   1.410       .  A
C160        S162   1.807       .  S
S161        H402   1.406       .  S
S162        H163   1.407       .  S
H164        S399   1.406       .  S
C167        C168   1.400       .  A
C167        C172   1.412       .  A
C168        C169   1.402       .  A
C168        H177   1.084       .  S
C169        C170   1.417       .  A
C169        S173   1.805       .  S
C170        C171   1.398       .  A
C171        C172   1.394       .  A
C171        H178   1.084       .  S
C172        S174   1.799       .  S
S173        H176   1.406       .  S
S174        H175   1.405       .  S
C179        C180   1.400       .  A
C179        C184   1.417       .  A
C180        C181   1.396       .  A
C180        H189   1.084       .  S
C181        C182   1.414       .  A
C181        S185   1.800       .  S
C182        C183   1.402       .  A
C183        C184   1.404       .  A
C183        H190   1.084       .  S
C184        S186   1.804       .  S
S185        H188   1.404       .  S
S186        H187   1.405       .  S
C191        C192   1.410       .  A
C191        C672   1.408   1_455  A
C192        C193   1.415       .  A
C192        H201   1.083       .  S
C193        C194   1.416       .  A
C193        S197   1.797       .  S
C194        C671   1.414   1_455  A
C195        C196   1.398       .  A
C195        C670   1.413       .  A
C195        H202   1.084       .  S
C196        C667   1.410       .  A
C196        S198   1.806       .  S
S197        H200   1.406       .  S
S198        H199   1.405       .  S
C203        C204   1.404       .  A
C203        C684   1.426       .  A
C204        C205   1.409       .  A
C204        H213   1.083       .  S
C205        C206   1.419       .  A
C205        S209   1.803       .  S
C206        C683   1.393       .  A
C206        C497   1.495       .  S
C207        C208   1.396       .  A
C207        C682   1.394   1_455  A
C207        H214   1.083       .  S
C208        C679   1.426   1_455  A
C208        S210   1.810       .  S
S209        H212   1.406       .  S
S210        H211   1.406       .  S
C215        C216   1.413       .  A
C215        C696   1.409       .  A
C216        C217   1.413       .  A
C216        H225   1.083       .  S
C217        C218   1.414       .  A
C217        S221   1.797       .  S
C218        C695   1.413       .  A
C219        C220   1.398   1_655  A
C219        C694   1.412       .  A
C219        H226   1.084   1_655  S
C220        C691   1.412   1_455  A
C220        S222   1.805       .  S
S221        H224   1.407       .  S
S222        H223   1.406       .  S
C227        C232   1.418       .  A
C227        C704   1.412   1_455  A
C228        C229   1.399       .  A
C228        C703   1.412       .  A
C228        H237   1.084       .  S
C229        C706   1.411       .  A
C229        S233   1.807       .  S
C230        C231   1.410       .  A
C230        C705   1.410   1_455  A
C230        C500   1.499       .  S
C231        C232   1.414       .  A
C231        H238   1.083       .  S
C232        S234   1.802       .  S
S233        H236   1.404       .  S
S234        H235   1.401       .  S
N239        C244   1.355       .  A
N239        H271   1.038   1_655  S
N240        C723   1.352       .  A
N240        C248   1.353       .  A
N241        C245   1.357       .  A
N241        H272   1.039   1_556  S
N242        C725   1.356       .  A
N242        C250   1.354       .  A
C243        C251   1.389       .  A
C243        C259   1.423       .  A
C244        C260   1.420   1_655  A
C244        C252   1.385       .  A
C245        C253   1.385       .  A
C245        C262   1.422       .  A
C246        C261   1.427       .  A
C246        C254   1.389       .  A
C247        N716   1.350   1_455  A
C247        C259   1.412   1_455  A
C247        C255   1.385       .  A
C248        C262   1.417       .  A
C248        C256   1.387       .  A
C249        N718   1.355   1_455  A
C249        C257   1.386       .  A
C249        C260   1.419       .  A
C250        C258   1.387       .  A
C250        C261   1.420       .  A
C251        H263   1.082       .  S
C252        H264   1.082       .  S
C253        H265   1.082       .  S
C254        H266   1.082       .  S
C255        C732   1.374       .  A
C255        H267   1.082       .  S
C256        C731   1.373       .  A
C256        H268   1.082       .  S
C257        C734   1.371       .  A
C257        H269   1.082       .  S
C258        C733   1.372       .  A
C258        H270   1.082       .  S
C259        C920   1.498       .  S
C260        C429   1.502       .  S
C261        C453   1.503       .  S
C262        C944   1.504       .  S
Fe273       O289   1.997       .  S
Fe273       O755   2.083   1_455  S
Fe273       O286   2.077       .  S
Fe273       O754   1.999       .  S
Fe273       O284   1.944       .  S
Fe274       O277   2.028       .  S
Fe274       O281   2.151       .  S
Fe274       O285   2.056       .  S
Fe274       O290   2.136       .  S
Fe274       O284   1.928       .  S
Fe275       O293   2.115       .  S
Fe275       O756   2.022       .  S
Fe275       O287   2.047       .  S
Fe275       O276   2.137       .  S
Fe275       O760   1.929       .  S
O276        C283   1.291       .  A
O277        C767   1.261   1_455  A
O278       Fe749   1.996       .  S
O278        C283   1.271       .  A
O279       Fe749   2.087       .  S
O279        C282   1.263       .  A
O280       Fe751   2.022       .  S
O280        C292   1.263   1_655  A
O281        C294   1.296       .  A
C282        C405   1.472       .  S
C282        O287   1.255       .  A
C283        C381   1.455       .  S
O284       Fe751   1.925   1_455  S
O285        C288   1.257       .  A
O286        C288   1.260       .  A
C288        C420   1.473       .  S
O289        C294   1.271       .  A
O290        C292   1.283       .  A
C291        C441   1.493       .  S
C291        O753   1.261       .  A
C291        O293   1.279       .  A
C292        C432   1.504       .  S
C294        C393   1.461       .  S
C295        C296   1.414   1_545  A
C295        C300   1.405       .  A
C295        C417   1.482       .  S
C296        C297   1.402       .  A
C296        C357   1.487       .  S
C297        C298   1.404       .  A
C297        H302   1.084       .  S
C298        C299   1.416   1_565  A
C298        C369   1.482       .  S
C299        C300   1.403       .  A
C299        C408   1.490       .  S
C300        H301   1.084       .  S
Fe303       O319   1.995       .  S
Fe303       O785   2.076       .  S
Fe303       O316   2.083       .  S
Fe303       O784   1.993       .  S
Fe303       O314   1.952       .  S
Fe304       O307   2.026       .  S
Fe304       O311   2.143       .  S
Fe304       O315   2.039       .  S
Fe304       O320   2.126       .  S
Fe304       O314   1.936       .  S
Fe305       O323   2.134       .  S
Fe305       O786   2.027       .  S
Fe305       O317   2.053       .  S
Fe305       O306   2.146       .  S
Fe305       O790   1.933       .  S
O306        C313   1.293       .  A
O307        C797   1.264       .  A
O308       Fe779   1.993       .  S
O308        C313   1.268       .  A
O309       Fe779   2.079       .  S
O309        C312   1.263       .  A
O310       Fe781   2.029       .  S
O310        C322   1.263       .  A
O311        C324   1.291       .  A
C312        C360   1.474       .  S
C312        O317   1.258       .  A
C313        C333   1.459       .  S
O314       Fe781   1.933       .  S
O315        C318   1.254       .  A
O316        C318   1.263       .  A
C318        C372   1.465       .  S
O319        C324   1.268       .  A
O320        C322   1.279       .  A
C321        C465   1.498       .  S
C321        O783   1.263   1_455  A
C321        O323   1.283       .  A
C322        C456   1.507       .  S
C324        C345   1.459       .  S
C325        C802   1.411   1_565  A
C325        C330   1.398   1_556  A
C325        C348   1.475       .  S
C326        C801   1.412   1_545  A
C326        C327   1.394       .  A
C326        C396   1.477   1_655  S
C327        H332   1.085       .  S
C328        C805   1.419   1_545  A
C328        C860   1.473       .  S
C329        C804   1.419   1_565  A
C329        C812   1.485       .  S
C330        H331   1.083       .  S
C333        C810   1.399       .  A
C333        C338   1.413       .  A
C334        C809   1.400       .  A
C334        C335   1.397       .  A
C334        H343   1.085       .  S
C335        C812   1.420       .  A
C335        S339   1.808       .  S
C336        C811   1.419   1_455  A
C336        C337   1.404       .  A
C336        C805   1.485   1_455  S
C337        C338   1.398       .  A
C337        H344   1.083   1_565  S
C338        S340   1.805       .  S
S339        H342   1.402       .  S
S340        H341   1.400       .  S
C345        C346   1.401       .  A
C345        C826   1.410       .  A
C346        C347   1.401       .  A
C346        H355   1.084       .  S
C347        C348   1.417       .  A
C347        S351   1.804       .  S
C348        C825   1.399       .  A
C349        C824   1.399   1_455  A
C349        C350   1.391       .  A
C349        H356   1.084       .  S
C350        C821   1.411   1_455  A
C350        S352   1.802       .  S
S351        H354   1.406       .  S
S352        H353   1.406       .  S
C357        C358   1.401       .  A
C357        C362   1.416       .  A
C358        C359   1.399       .  A
C358        H367   1.084       .  S
C359        C360   1.415       .  A
C359        S363   1.803       .  S
C360        C361   1.401       .  A
C361        C362   1.401       .  A
C361        H368   1.084       .  S
C362        S364   1.804       .  S
S363        H366   1.403       .  S
S364        H365   1.406       .  S
C369        C370   1.400       .  A
C369        C374   1.418       .  A
C370        C371   1.394       .  A
C370        H379   1.084       .  S
C371        C372   1.412       .  A
C371        S375   1.801       .  S
C372        C373   1.399       .  A
C373        C374   1.399       .  A
C373        H380   1.084       .  S
C374        S376   1.804       .  S
S375        H378   1.405       .  S
S376        H377   1.406       .  S
C381        C382   1.400       .  A
C381        C386   1.409       .  A
C382        C383   1.403       .  A
C382        H391   1.083       .  S
C383        C384   1.412       .  A
C383        S387   1.804       .  S
C384        C385   1.401       .  A
C384        C804   1.475       .  S
C385        C386   1.391       .  A
C385        H392   1.084       .  S
C386        S388   1.803       .  S
S387        H390   1.407       .  S
S388        H389   1.406       .  S
C393        C394   1.400       .  A
C393        C874   1.410   1_455  A
C394        C395   1.400       .  A
C394        H403   1.084       .  S
C395        C396   1.416       .  A
C395        S399   1.803       .  S
C396        C873   1.401   1_455  A
C397        C872   1.400       .  A
C397        C398   1.396       .  A
C397        H404   1.083       .  S
C398        C869   1.410       .  A
C398        S400   1.809       .  S
S400        H401   1.406       .  S
C405        C406   1.400       .  A
C405        C410   1.413       .  A
C406        C407   1.402       .  A
C406        H415   1.084       .  S
C407        C408   1.418       .  A
C407        S411   1.804       .  S
C408        C409   1.401       .  A
C409        C410   1.397       .  A
C409        H416   1.084       .  S
C410        S412   1.801       .  S
S411        H414   1.406       .  S
S412        H413   1.404       .  S
C417        C418   1.398       .  A
C417        C422   1.417       .  A
C418        C419   1.395       .  A
C418        H427   1.084       .  S
C419        C420   1.414       .  A
C419        S423   1.799       .  S
C420        C421   1.401       .  A
C421        C422   1.403       .  A
C421        H428   1.084       .  S
C422        S424   1.804       .  S
S423        H426   1.405       .  S
S424        H425   1.405       .  S
C429        C430   1.410       .  A
C429        C910   1.409   1_455  A
C430        C431   1.415       .  A
C430        H439   1.083       .  S
C431        C432   1.417       .  A
C431        S435   1.797       .  S
C432        C909   1.413   1_455  A
C433        C908   1.414       .  A
C433        C434   1.395       .  A
C433        H440   1.084       .  S
C434        C905   1.408       .  A
C434        S436   1.806       .  S
S435        H438   1.406       .  S
S436        H437   1.405       .  S
C441        C442   1.404       .  A
C441        C922   1.424       .  A
C442        C443   1.408       .  A
C442        H451   1.083       .  S
C443        C444   1.418       .  A
C443        S447   1.803       .  S
C444        C921   1.397       .  A
C444        C735   1.498       .  S
C445        C920   1.396   1_455  A
C445        C446   1.398       .  A
C445        H452   1.083       .  S
C446        C917   1.424   1_455  A
C446        S448   1.810       .  S
S447        H450   1.406       .  S
S448        H449   1.406       .  S
C453        C454   1.412       .  A
C453        C934   1.408       .  A
C454        C455   1.414       .  A
C454        H463   1.083       .  S
C455        C456   1.417       .  A
C455        S459   1.797       .  S
C456        C933   1.414       .  A
C457        C932   1.414   1_455  A
C457        C458   1.395       .  A
C457        H464   1.084       .  S
C458        C929   1.408   1_455  A
C458        S460   1.806       .  S
S459        H462   1.407       .  S
S460        H461   1.406       .  S
C465        C942   1.411   1_455  A
C465        C470   1.416       .  A
C466        C941   1.411       .  A
C466        C467   1.402       .  A
C466        H475   1.083       .  S
C467        C944   1.409       .  A
C467        S471   1.809       .  S
C468        C943   1.409   1_455  A
C468        C469   1.408       .  A
C468        C738   1.501       .  S
C469        C470   1.413       .  A
C469        H476   1.083       .  S
C470        S472   1.797       .  S
S471        H474   1.407       .  S
S472        H473   1.406       .  S
N477        C482   1.355       .  A
N477        C719   1.355   1_554  A
N477        H509   1.040       .  S
N478        C486   1.353   1_655  A
N479        C722   1.357       .  A
N479        C483   1.356       .  A
N479        H510   1.038   1_655  S
N480        C488   1.354       .  A
C481        N715   1.356       .  A
C481        C489   1.390       .  A
C481        C497   1.426       .  A
C482        C498   1.418       .  A
C482        C490   1.385       .  A
C483        C491   1.385       .  A
C483        C500   1.422   1_655  A
C484        N717   1.357   1_554  A
C484        C499   1.429       .  A
C484        C492   1.389       .  A
C485        C497   1.415       .  A
C485        C493   1.387       .  A
C486        C500   1.416       .  A
C486        C494   1.386       .  A
C487        C495   1.386       .  A
C487        C498   1.418       .  A
C488        C496   1.387   1_655  A
C488        C499   1.421       .  A
C489        C728   1.382       .  A
C489        H501   1.082       .  S
C490        C727   1.381   1_554  A
C490        H502   1.082       .  S
C491        C730   1.383       .  A
C491        H503   1.082       .  S
C492        C729   1.385   1_554  A
C492        H504   1.082       .  S
C493        H505   1.082       .  S
C494        H506   1.082       .  S
C495        H507   1.082       .  S
C496        H508   1.082       .  S
C498        C667   1.502       .  S
C499        C691   1.508       .  S
Fe511       O527   1.998       .  S
Fe511       O524   2.077       .  S
Fe511       O522   1.946       .  S
Fe512       O515   2.025       .  S
Fe512       O519   2.152       .  S
Fe512       O523   2.055       .  S
Fe512       O528   2.133       .  S
Fe512       O522   1.926       .  S
Fe513       O531   2.115       .  S
Fe513       O525   2.045       .  S
Fe513       O514   2.142       .  S
O514        C521   1.294       .  A
O516        C521   1.272   1_455  A
O517        C520   1.261       .  A
O518        C530   1.264       .  A
O519        C532   1.296       .  A
C520        C643   1.467       .  S
C520        O525   1.253       .  A
C521        C619   1.456       .  S
O523        C526   1.257       .  A
O524        C526   1.261       .  A
C526        C658   1.472       .  S
O527        C532   1.271       .  A
O528        C530   1.283       .  A
C529        C679   1.492       .  S
C529        O531   1.279       .  A
C530        C670   1.505       .  S
C532        C631   1.462       .  S
C533        C534   1.415   1_545  A
C533        C538   1.403       .  A
C533        C655   1.483       .  S
C534        C535   1.402       .  A
C534        C595   1.482       .  S
C535        C536   1.400       .  A
C535        H540   1.084       .  S
C536        C537   1.411   1_565  A
C536        C607   1.478       .  S
C537        C538   1.401       .  A
C537        C646   1.482       .  S
C538        H539   1.084       .  S
Fe541       O557   1.997       .  S
Fe541       O554   2.088   1_455  S
Fe541       O552   1.951       .  S
Fe542       O545   2.021       .  S
Fe542       O549   2.146       .  S
Fe542       O553   2.038       .  S
Fe542       O558   2.129       .  S
Fe542       O552   1.931   1_655  S
Fe543       O561   2.135       .  S
Fe543       O555   2.054       .  S
Fe543       O544   2.143       .  S
O544        C551   1.293       .  A
O546        C551   1.270       .  A
O547        C550   1.262       .  A
O548        C560   1.263   1_455  A
O549        C562   1.292       .  A
C550        C598   1.469       .  S
C550        O555   1.259       .  A
C551        C571   1.462       .  S
O553        C556   1.254       .  A
O554        C556   1.263       .  A
C556        C610   1.465       .  S
O557        C562   1.268   1_455  A
O558        C560   1.280       .  A
C559        C703   1.501       .  S
C559        O561   1.284       .  A
C560        C694   1.504       .  S
C562        C583   1.461       .  S
C563        C568   1.392   1_655  A
C563        C586   1.473       .  S
C564        C565   1.395       .  A
C564        C634   1.479       .  S
C565        C804   1.398       .  A
C565        H570   1.085       .  S
C566        C803   1.396       .  A
C567        C806   1.399   1_554  A
C568        C805   1.397   1_455  A
C568        H569   1.084       .  S
C571        C576   1.411       .  A
C572        C573   1.397   1_455  A
C572        H581   1.085   1_455  S
C573        S577   1.807       .  S
C574        C575   1.406       .  A
C575        C576   1.398       .  A
C575        H582   1.083       .  S
C576        S578   1.806       .  S
S577        H580   1.402       .  S
S578        H579   1.401       .  S
C583        C584   1.401       .  A
C584        C585   1.400       .  A
C584        H593   1.083       .  S
C585        C586   1.414       .  A
C585        S589   1.804       .  S
C587        C588   1.392       .  A
C587        H594   1.084       .  S
C588        S590   1.801       .  S
S589        H592   1.407       .  S
S590        H591   1.407       .  S
C595        C596   1.400       .  A
C595        C600   1.415       .  A
C596        C597   1.397       .  A
C596        H605   1.084       .  S
C597        C598   1.414       .  A
C597        S601   1.802       .  S
C598        C599   1.401       .  A
C599        C600   1.400       .  A
C599        H606   1.084       .  S
C600        S602   1.804       .  S
S601        H604   1.404       .  S
S602        H603   1.406       .  S
C607        C608   1.397       .  A
C607        C612   1.416       .  A
C608        C609   1.393       .  A
C608        H617   1.084       .  S
C609        C610   1.413       .  A
C609        S613   1.799       .  S
C610        C611   1.399       .  A
C611        C612   1.400       .  A
C611        H618   1.084       .  S
C612        S614   1.804       .  S
S613        H616   1.405       .  S
S614        H615   1.406       .  S
C619        C620   1.400       .  A
C619        C624   1.410   1_655  A
C620        C621   1.402       .  A
C620        H629   1.083       .  S
C621        C622   1.411       .  A
C621        S625   1.804       .  S
C622        C623   1.400   1_655  A
C623        C624   1.392       .  A
C623        H630   1.084       .  S
C624        S626   1.804       .  S
S625        H628   1.407       .  S
S626        H627   1.406       .  S
C631        C632   1.400       .  A
C632        C633   1.401       .  A
C632        H641   1.084       .  S
C633        C634   1.416       .  A
C633        S637   1.803       .  S
C635        C636   1.397       .  A
C635        H642   1.083       .  S
C636        S638   1.808       .  S
S637        H878   1.406       .  S
S638        H639   1.407       .  S
H640        S875   1.406       .  S
C643        C644   1.400       .  A
C643        C648   1.412       .  A
C644        C645   1.401       .  A
C644        H653   1.084       .  S
C645        C646   1.417       .  A
C645        S649   1.805       .  S
C646        C647   1.399       .  A
C647        C648   1.395       .  A
C647        H654   1.084       .  S
C648        S650   1.800       .  S
S649        H652   1.405       .  S
S650        H651   1.405       .  S
C655        C656   1.399       .  A
C655        C660   1.417       .  A
C656        C657   1.396       .  A
C656        H665   1.084       .  S
C657        C658   1.414       .  A
C657        S661   1.800       .  S
C658        C659   1.401       .  A
C659        C660   1.402       .  A
C659        H666   1.084       .  S
C660        S662   1.804       .  S
S661        H664   1.404       .  S
S662        H663   1.405       .  S
C667        C668   1.410       .  A
C668        C669   1.415       .  A
C668        H677   1.083       .  S
C669        C670   1.416       .  A
C669        S673   1.797       .  S
C671        C672   1.397       .  A
C671        H678   1.084       .  S
C672        S674   1.806       .  S
S673        H676   1.406       .  S
S674        H675   1.405       .  S
C679        C680   1.404       .  A
C680        C681   1.409       .  A
C680        H689   1.083       .  S
C681        C682   1.420       .  A
C681        S685   1.803       .  S
C683        C684   1.395       .  A
C683        H690   1.083       .  S
C684        S686   1.811       .  S
S685        H688   1.406       .  S
S686        H687   1.406       .  S
C691        C692   1.415       .  A
C692        C693   1.414       .  A
C692        H701   1.084       .  S
C693        C694   1.414       .  A
C693        S697   1.798       .  S
C695        C696   1.396       .  A
C695        H702   1.084       .  S
C696        S698   1.805       .  S
S697        H700   1.407       .  S
S698        H699   1.406       .  S
C703        C708   1.418       .  A
C704        C705   1.396       .  A
C704        H713   1.084       .  S
C705        S709   1.807       .  S
C706        C707   1.409       .  A
C707        C708   1.415       .  A
C707        H714   1.083       .  S
C708        S710   1.802       .  S
S709        H712   1.404       .  S
S710        H711   1.401       .  S
N715        C720   1.356       .  A
N715        H747   1.038       .  S
N716        C724   1.351   1_655  A
N717        C721   1.357       .  A
N717        H748   1.040   1_655  S
N718        C726   1.353       .  A
C719        C727   1.389       .  A
C719        C735   1.423       .  A
C720        C736   1.420       .  A
C720        C728   1.385       .  A
C721        C729   1.385       .  A
C721        C738   1.423   1_655  A
C722        C737   1.426       .  A
C722        C730   1.389       .  A
C723        C735   1.415       .  A
C723        C731   1.386       .  A
C724        C738   1.415       .  A
C724        C732   1.388       .  A
C725        C733   1.386       .  A
C725        C736   1.420       .  A
C726        C734   1.386   1_655  A
C726        C737   1.417       .  A
C727        H739   1.082       .  S
C728        H740   1.082       .  S
C729        H741   1.082       .  S
C730        H742   1.082       .  S
C731        H743   1.082       .  S
C732        H744   1.082       .  S
C733        H745   1.082       .  S
C734        H746   1.082       .  S
C736        C905   1.502       .  S
C737        C929   1.501       .  S
Fe749       O765   1.996       .  S
Fe749       O762   2.076       .  S
Fe749       O760   1.948       .  S
Fe750       O753   2.031       .  S
Fe750       O757   2.147       .  S
Fe750       O761   2.050       .  S
Fe750       O766   2.137       .  S
Fe750       O760   1.933       .  S
Fe751       O769   2.117       .  S
Fe751       O763   2.049       .  S
Fe751       O752   2.137       .  S
O752        C759   1.293       .  A
O754        C759   1.272   1_455  A
O755        C758   1.262       .  A
O756        C768   1.263       .  A
O757        C770   1.295       .  A
C758        C881   1.470       .  S
C758        O763   1.256       .  A
C759        C857   1.455       .  S
O761        C764   1.257       .  A
O762        C764   1.261       .  A
C764        C896   1.472       .  S
O765        C770   1.271       .  A
O766        C768   1.283       .  A
C767        C917   1.491       .  S
C767        O769   1.279       .  A
C768        C908   1.507       .  S
C770        C869   1.460       .  S
C771        C772   1.418   1_545  A
C771        C776   1.406       .  A
C771        C893   1.487       .  S
C772        C773   1.402       .  A
C772        C833   1.489       .  S
C773        C774   1.403       .  A
C773        H778   1.084       .  S
C774        C775   1.414   1_565  A
C774        C845   1.482       .  S
C775        C776   1.403       .  A
C775        C884   1.489       .  S
C776        H777   1.084       .  S
Fe779       O795   1.992       .  S
Fe779       O792   2.085   1_455  S
Fe779       O790   1.950       .  S
Fe780       O783   2.025       .  S
Fe780       O787   2.145       .  S
Fe780       O791   2.040       .  S
Fe780       O796   2.127       .  S
Fe780       O790   1.937   1_655  S
Fe781       O799   2.138       .  S
Fe781       O793   2.052       .  S
Fe781       O782   2.147       .  S
O782        C789   1.294       .  A
O784        C789   1.268       .  A
O785        C788   1.263       .  A
O786        C798   1.263   1_455  A
O787        C800   1.292       .  A
C788        C836   1.473       .  S
C788        O793   1.258       .  A
C789        C809   1.460       .  S
O791        C794   1.254       .  A
O792        C794   1.263       .  A
C794        C848   1.466       .  S
O795        C800   1.268   1_455  A
O796        C798   1.280       .  A
C797        C941   1.501       .  S
C797        O799   1.284       .  A
C798        C932   1.506       .  S
C800        C821   1.459       .  S
C801        C806   1.397       .  A
C801        C824   1.475       .  S
C802        C803   1.392   1_556  A
C802        C872   1.476       .  S
C803        H808   1.085   1_554  S
C806        H807   1.083       .  S
C809        C814   1.411       .  A
C810        C811   1.396   1_455  A
C810        H819   1.085   1_455  S
C811        S815   1.808       .  S
C812        C813   1.405       .  A
C813        C814   1.399       .  A
C813        H820   1.083   1_565  S
C814        S816   1.803       .  S
S815        H818   1.403       .  S
S816        H817   1.403       .  S
C821        C822   1.402       .  A
C822        C823   1.401       .  A
C822        H831   1.084       .  S
C823        C824   1.416       .  A
C823        S827   1.804       .  S
C825        C826   1.391       .  A
C825        H832   1.084       .  S
C826        S828   1.800       .  S
S827        H830   1.406       .  S
S828        H829   1.406       .  S
C833        C834   1.403       .  A
C833        C838   1.416       .  A
C834        C835   1.397       .  A
C834        H843   1.084       .  S
C835        C836   1.413       .  A
C835        S839   1.802       .  S
C836        C837   1.401       .  A
C837        C838   1.402       .  A
C837        H844   1.084       .  S
C838        S840   1.804       .  S
S839        H842   1.404       .  S
S840        H841   1.406       .  S
C845        C846   1.400       .  A
C845        C850   1.417       .  A
C846        C847   1.394       .  A
C846        H855   1.084       .  S
C847        C848   1.412       .  A
C847        S851   1.800       .  S
C848        C849   1.399       .  A
C849        C850   1.400       .  A
C849        H856   1.084       .  S
C850        S852   1.804       .  S
S851        H854   1.405       .  S
S852        H853   1.406       .  S
C857        C858   1.399       .  A
C857        C862   1.409   1_655  A
C858        C859   1.401       .  A
C858        H867   1.083       .  S
C859        C860   1.410       .  A
C859        S863   1.803       .  S
C860        C861   1.401   1_655  A
C861        C862   1.391       .  A
C861        H868   1.084       .  S
C862        S864   1.802       .  S
S863        H866   1.407       .  S
S864        H865   1.406       .  S
C869        C870   1.400       .  A
C870        C871   1.401       .  A
C870        H879   1.084       .  S
C871        C872   1.416       .  A
C871        S875   1.804       .  S
C873        C874   1.397       .  A
C873        H880   1.083       .  S
C874        S876   1.809       .  S
S876        H877   1.406       .  S
C881        C882   1.400       .  A
C881        C886   1.413       .  A
C882        C883   1.401       .  A
C882        H891   1.084       .  S
C883        C884   1.418       .  A
C883        S887   1.804       .  S
C884        C885   1.402       .  A
C885        C886   1.398       .  A
C885        H892   1.084       .  S
C886        S888   1.802       .  S
S887        H890   1.406       .  S
S888        H889   1.404       .  S
C893        C894   1.402       .  A
C893        C898   1.417       .  A
C894        C895   1.400       .  A
C894        H903   1.083       .  S
C895        C896   1.411       .  A
C895        S899   1.807       .  S
C896        C897   1.400       .  A
C897        C898   1.401       .  A
C897        H904   1.083       .  S
C898        S900   1.804       .  S
S899        H902   1.407       .  S
S900        H901   1.406       .  S
C905        C906   1.411       .  A
C906        C907   1.417       .  A
C906        H915   1.083       .  S
C907        C908   1.418       .  A
C907        S911   1.797       .  S
C909        C910   1.395       .  A
C909        H916   1.084       .  S
C910        S912   1.806       .  S
S911        H914   1.406       .  S
S912        H913   1.405       .  S
C917        C918   1.404       .  A
C918        C919   1.409       .  A
C918        H927   1.083       .  S
C919        C920   1.419       .  A
C919        S923   1.803       .  S
C921        C922   1.400       .  A
C921        H928   1.083       .  S
C922        S924   1.811       .  S
S923        H926   1.406       .  S
S924        H925   1.406       .  S
C929        C930   1.412       .  A
C930        C931   1.414       .  A
C930        H939   1.084       .  S
C931        C932   1.417       .  A
C931        S935   1.798       .  S
C933        C934   1.396       .  A
C933        H940   1.084       .  S
C934        S936   1.805       .  S
S935        H938   1.407       .  S
S936        H937   1.406       .  S
C941        C946   1.417       .  A
C942        C943   1.402       .  A
C942        H951   1.083       .  S
C943        S947   1.809       .  S
C944        C945   1.409       .  A
C945        C946   1.414       .  A
C945        H952   1.083       .  S
C946        S948   1.797       .  S
S947        H950   1.406       .  S
S948        H949   1.405       .  S
