geometry optimzed in LAMMPS
_audit_creation_date              2020-12-01 
_audit_creation_method            'lammps2cif' 
_symmetry_space_group_name_H-M    'P1' 
_symmetry_Int_Tables_number       1 
_symmetry_cell_setting            triclinic 
loop_ 
_symmetry_equiv_pos_as_xyz 
  x,y,z 
_cell_length_a                    43.69613669 
_cell_length_b                    43.757144295481595 
_cell_length_c                    43.738414353213045 
_cell_angle_alpha                 90.08441160334681 
_cell_angle_beta                  89.85309755323456 
_cell_angle_gamma                 90.11347391470852 
loop_ 
_atom_site_label 
_atom_site_type_symbol 
_atom_site_fract_x 
_atom_site_fract_y 
_atom_site_fract_z 
_atom_site_charge 
C1          C  0.72024052  0.71051040  0.69433069     0.80500
N2          N  0.69547544  0.72455706  0.70683675    -0.77800
C3          C  0.67897895  0.71038994  0.72910913     0.83000
N4          N  0.68742565  0.68221034  0.73896540    -0.77700
C5          C  0.71276394  0.66858971  0.72723666     0.83000
N6          N  0.72891421  0.68261421  0.70469511    -0.79500
C7          C  0.70444167  0.38575662  0.68306670     0.80500
N8          N  0.67712384  0.37481999  0.69319862    -0.77800
C9          C  0.66430860  0.38626243  0.71910348     0.83000
N10         N  0.67823866  0.40956204  0.73419876    -0.77700
C11         C  0.70531642  0.42093468  0.72392958     0.83000
N12         N  0.71856518  0.40879410  0.69850466    -0.79500
C13         C  0.41764974  0.39058356  0.71389757     0.80500
N14         N  0.40612960  0.41618891  0.72720226    -0.77800
C15         C  0.38451000  0.43294414  0.71254704     0.83000
N16         N  0.37445149  0.42403268  0.68449918    -0.77700
C17         C  0.38525612  0.39790695  0.67160486     0.83000
N18         N  0.40712343  0.38150389  0.68616556    -0.79500
C19         C  0.39901279  0.72224230  0.68051318     0.80500
N20         N  0.38615590  0.69561313  0.69011299    -0.77800
C21         C  0.39681517  0.68149239  0.71557920     0.83000
N22         N  0.42126522  0.69328794  0.73065688    -0.77700
C23         C  0.43443846  0.71968410  0.72093645     0.83000
N24         N  0.42299836  0.73438093  0.69611599    -0.79500
C25         C  0.40749019  0.72740472  0.43192224     0.80500
N26         N  0.39451096  0.70363897  0.41656844    -0.77800
C27         C  0.40747323  0.69305291  0.39030242     0.83000
N28         N  0.43376027  0.70592294  0.37976956    -0.77700
C29         C  0.44706165  0.72935873  0.39524791     0.83000
N30         N  0.43393613  0.74002179  0.42136310    -0.79500
C31         C  0.69508417  0.72099749  0.40377474     0.80500
N32         N  0.70725727  0.69545477  0.39092312    -0.77800
C33         C  0.72920834  0.67939335  0.40586834     0.83000
N34         N  0.73933955  0.68921609  0.43354641    -0.77700
C35         C  0.72803517  0.71533325  0.44600954     0.83000
N36         N  0.70553581  0.73089767  0.43134030    -0.79500
C37         C  0.71748901  0.39175566  0.43459113     0.80500
N38         N  0.73185804  0.41713021  0.42366395    -0.77800
C39         C  0.72146570  0.43107302  0.39790684     0.83000
N40         N  0.69627898  0.41990514  0.38347804    -0.77700
C41         C  0.68172769  0.39470157  0.39442815     0.83000
N42         N  0.69234817  0.38073028  0.42000857    -0.79500
N43         N  0.74926909  0.48067776  0.76211288    -0.27000
N44         N  0.72554872  0.49644805  0.75195352    -0.34900
C45         C  0.70619245  0.47735025  0.73756071     0.01300
C46         C  0.71838697  0.44829045  0.73836766     0.07400
C47         C  0.74576849  0.45114284  0.75392587    -0.05700
H48         H  0.68524767  0.48430671  0.72643111     0.08000
H49         H  0.76186443  0.43312381  0.75903297     0.09200
Cu50       Cu  0.72117721  0.54364219  0.75517317     0.44200
Cu51       Cu  0.78527478  0.50011803  0.78676790     0.42000
Cu52       Cu  0.78665948  0.58263346  0.78581491     0.43900
N53         N  0.72731614  0.59062393  0.75192164    -0.34400
N54         N  0.75220058  0.60460071  0.76196992    -0.28600
C55         C  0.75073506  0.63438221  0.75462411    -0.04700
C56         C  0.72343791  0.63943848  0.73966779     0.07500
C57         C  0.70902878  0.61131140  0.73837975     0.01300
H58         H  0.76810723  0.65117212  0.76008744     0.08900
H59         H  0.68735851  0.60609262  0.72761803     0.08000
N60         N  0.81622222  0.55649642  0.81192254    -0.35800
N61         N  0.81608464  0.52626890  0.81224255    -0.28000
C62         C  0.83747113  0.51654075  0.83212528    -0.03300
C63         C  0.85153523  0.54189093  0.84495367     0.05400
C64         C  0.83744026  0.56678902  0.83166198     0.03400
H65         H  0.84188765  0.49282313  0.83748580     0.08500
H66         H  0.84195704  0.59065296  0.83634994     0.07400
N67         N  0.35299965  0.49610844  0.75682229    -0.27000
N68         N  0.36539363  0.51095242  0.73353716    -0.34900
C69         C  0.37802127  0.49067916  0.71413983     0.01300
C70         C  0.37372986  0.46175003  0.72594421     0.07400
C71         C  0.35797511  0.46593376  0.75310845    -0.05700
H72         H  0.39003769  0.49663626  0.69329362     0.08000
H73         H  0.35023094  0.44836027  0.76870332     0.09200
Cu74       Cu  0.36604268  0.55818034  0.72978325     0.44200
Cu75       Cu  0.32887958  0.51798784  0.79167688     0.42000
Cu76       Cu  0.32876712  0.60141858  0.78958353     0.43900
N77         N  0.36897496  0.60533199  0.73349795    -0.34400
N78         N  0.35592292  0.62120392  0.75573648    -0.28600
C79         C  0.36353661  0.65086529  0.75251719    -0.04700
C80         C  0.38193819  0.65367014  0.72690164     0.07500
C81         C  0.38497155  0.62445029  0.71540715     0.01300
H82         H  0.35630632  0.66899869  0.76773407     0.08900
H83         H  0.39841198  0.61745907  0.69578204     0.08000
N84         N  0.30267250  0.57555643  0.81998343    -0.35800
N85         N  0.30266933  0.54532192  0.82067021    -0.28000
C86         C  0.28277123  0.53580206  0.84222805    -0.03300
C87         C  0.26973847  0.56123692  0.85586269     0.05400
C88         C  0.28289676  0.58603874  0.84120506     0.03400
H89         H  0.27799054  0.51217951  0.84743579     0.08500
H90         H  0.27807132  0.60988410  0.84530555     0.07400
N91         N  0.75799140  0.49326440  0.35594494    -0.27000
N92         N  0.74985935  0.50760463  0.38136478    -0.34900
C93         C  0.73676652  0.48736521  0.40057378     0.01300
C94         C  0.73633620  0.45905539  0.38650239     0.07400
C95         C  0.74970985  0.46364638  0.35814844    -0.05700
H96         H  0.72713309  0.49310551  0.42268046     0.08000
H97         H  0.75321048  0.44670204  0.34044994     0.09200
Cu98       Cu  0.75405724  0.55469594  0.38773525     0.44200
Cu99       Cu  0.78024031  0.51479176  0.31952501     0.42000
Cu100      Cu  0.78271744  0.59744754  0.32298579     0.43900
N101        N  0.75203842  0.60223009  0.38461473    -0.34400
N102        N  0.76114043  0.61761146  0.36019569    -0.28600
C103        C  0.75456918  0.64741002  0.36408672    -0.04700
C104        C  0.74124732  0.65102692  0.39252919     0.07500
C105        C  0.74001514  0.62200160  0.40498429     0.01300
H106        H  0.75942705  0.66515210  0.34756390     0.08900
H107        H  0.73013002  0.61558117  0.42678417     0.08000
N108        N  0.80703894  0.57191595  0.29114820    -0.35800
N109        N  0.80599836  0.54173972  0.28961960    -0.28000
C110        C  0.82510472  0.53227490  0.26733423    -0.03300
C111        C  0.83891710  0.55768235  0.25433062     0.05400
C112        C  0.82690233  0.58240586  0.27003899     0.03400
H113        H  0.82933444  0.50859325  0.26160160     0.08500
H114        H  0.83255561  0.60625616  0.26670306     0.07400
N115        N  0.35950555  0.50915238  0.34828319    -0.27000
N116        N  0.38199594  0.52343571  0.36259957    -0.34900
C117        C  0.39893924  0.50287864  0.37787564     0.01300
C118        C  0.38635327  0.47430249  0.37321334     0.07400
C119        C  0.36133169  0.47902030  0.35443354    -0.05700
H120        H  0.41869151  0.50840941  0.39171917     0.08000
H121        H  0.34587810  0.46181369  0.34558587     0.09200
Cu122      Cu  0.38769514  0.57040963  0.36158060     0.44200
Cu123      Cu  0.32837951  0.53215102  0.32044047     0.42000
Cu124      Cu  0.33619733  0.61569503  0.31486445     0.43900
N125        N  0.38641821  0.61771723  0.36239931    -0.34400
N126        N  0.36771010  0.63460187  0.34573394    -0.28600
C127        C  0.37233597  0.66429319  0.35287405    -0.04700
C128        C  0.39494564  0.66587719  0.37499527     0.07500
C129        C  0.40333132  0.63602344  0.38041630     0.01300
H130        H  0.36000656  0.68322876  0.34294522     0.08900
H131        H  0.42022287  0.62810271  0.39661151     0.08000
N132        N  0.30552663  0.58963521  0.28865772    -0.35800
N133        N  0.30267758  0.55960344  0.29112810    -0.28000
C134        C  0.28100649  0.54988058  0.27156252    -0.03300
C135        C  0.26951414  0.57478247  0.25579975     0.05400
C136        C  0.28566250  0.59965051  0.26731338     0.03400
H137        H  0.27403577  0.52627670  0.26902313     0.08500
H138        H  0.28320993  0.62330821  0.26060544     0.07400
O139        O  0.02241776  0.53145506  0.08642649    -0.72700
O140        O  0.09054861  0.53630801  0.02421360    -0.73600
O141        O  0.08830585  0.53560602  0.08891807    -0.62300
O142        O  0.02553025  0.53164767  0.02177099    -0.70700
O143        O  0.02102781  0.58190319  0.02250665    -0.70200
O144        O  0.08580453  0.58612241  0.08836729    -0.61500
O145        O  0.08669326  0.58676267  0.02361081    -0.74000
O146        O  0.02043471  0.58189012  0.08727362    -0.72800
Cu147      Cu  0.05681122  0.53202890  0.05536277     1.04600
Cu148      Cu  0.05336231  0.58590509  0.05545956     1.04300
C149        C  0.01014854  0.55608728  0.09634796     0.93500
C150        C  0.09964947  0.56228822  0.01432228     0.92700
C151        C  0.09768212  0.56151610  0.09873095     0.84800
C152        C  0.01275552  0.55591434  0.01184060     0.91100
N153        N  0.61893571  0.75886335  0.76039460    -0.27000
N154        N  0.60343569  0.73332428  0.75532159    -0.34900
C155        C  0.62266611  0.71202461  0.74421617     0.01300
C156        C  0.65143209  0.72491449  0.74166366     0.07400
C157        C  0.64828616  0.75464112  0.75192600    -0.05700
H158        H  0.61591189  0.68923372  0.73727117     0.08000
H159        H  0.66607318  0.77180229  0.75350360     0.09200
Cu160      Cu  0.55620053  0.72912518  0.75998772     0.44200
Cu161      Cu  0.59975344  0.79802721  0.77951765     0.42000
Cu162      Cu  0.51744498  0.79894007  0.77779993     0.43900
N163        N  0.50966137  0.73568762  0.75246464    -0.34400
N164        N  0.49596214  0.76219757  0.75716947    -0.28600
C165        C  0.46695876  0.76052080  0.74704821    -0.04700
C166        C  0.46199484  0.73133155  0.73609791     0.07500
C167        C  0.48946543  0.71613650  0.73986723     0.01300
H168        H  0.45065738  0.77909001  0.74784553     0.08900
H169        H  0.49478651  0.69306338  0.73266602     0.08000
N170        N  0.54321373  0.82885871  0.80387171    -0.35800
N171        N  0.57343597  0.82908013  0.80426310    -0.28000
C172        C  0.58293676  0.85042023  0.82434762    -0.03300
C173        C  0.55740619  0.86410268  0.83749130     0.05400
C174        C  0.53267845  0.84968236  0.82387821     0.03400
H175        H  0.60667838  0.85505639  0.82954784     0.08500
H176        H  0.50870253  0.85341075  0.82875366     0.07400
N177        N  0.47645013  0.35204814  0.75827425    -0.27000
N178        N  0.49248869  0.36194425  0.73455656    -0.34900
C179        C  0.47366061  0.37615144  0.71497321     0.01300
C180        C  0.44446611  0.37548956  0.72701982     0.07400
C181        C  0.44695497  0.36026531  0.75459111    -0.05700
H182        H  0.48091274  0.38717586  0.69403757     0.08000
H183        H  0.42874515  0.35545949  0.77071171     0.09200
Cu184      Cu  0.53965055  0.35871657  0.73069232     0.44200
Cu185      Cu  0.49590718  0.32779201  0.79426103     0.42000
Cu186      Cu  0.57931920  0.32586679  0.79447046     0.43900
N187        N  0.58668755  0.36145531  0.73597068    -0.34400
N188        N  0.60123278  0.35039890  0.76000069    -0.28600
C189        C  0.63113346  0.35757366  0.75769352    -0.04700
C190        C  0.63551164  0.37351569  0.73075396     0.07500
C191        C  0.60694879  0.37554214  0.71750190     0.01300
H192        H  0.64840083  0.35144060  0.77424187     0.08900
H193        H  0.60116874  0.38707132  0.69643404     0.08000
N194        N  0.55191641  0.30106404  0.82459018    -0.35800
N195        N  0.52164659  0.30183963  0.82469719    -0.28000
C196        C  0.51112798  0.28265395  0.84640153    -0.03300
C197        C  0.53594006  0.26909848  0.86060952     0.05400
C198        C  0.56139357  0.28135133  0.84615240     0.03400
H199        H  0.48718426  0.27835158  0.85100780     0.08500
H200        H  0.58510568  0.27603948  0.85074546     0.07400
N201        N  0.63684975  0.75712469  0.35631955    -0.27000
N202        N  0.62043215  0.74885038  0.38043874    -0.34900
C203        C  0.63899453  0.73592154  0.40120504     0.01300
C204        C  0.66841927  0.73572787  0.38963148     0.07400
C205        C  0.66626601  0.74904631  0.36101023    -0.05700
H206        H  0.63140638  0.72631660  0.42271621     0.08000
H207        H  0.68471089  0.75269580  0.34485375     0.09200
Cu208      Cu  0.57303084  0.75264063  0.38380033     0.44200
Cu209      Cu  0.61827645  0.77937490  0.31829678     0.42000
Cu210      Cu  0.53497860  0.78296378  0.31864016     0.43900
N211        N  0.52563626  0.75172699  0.37896374    -0.34400
N212        N  0.51173952  0.76191710  0.35419898    -0.28600
C213        C  0.48154938  0.75617211  0.35649043    -0.04700
C214        C  0.47614107  0.74221128  0.38430049     0.07500
C215        C  0.50454509  0.73965197  0.39797448     0.01300
H216        H  0.46482117  0.76169035  0.33918391     0.08900
H217        H  0.50964310  0.72878453  0.41956498     0.08000
N218        N  0.56242730  0.80597486  0.28755576    -0.35800
N219        N  0.59265379  0.80468640  0.28687953    -0.28000
C220        C  0.60289463  0.82320288  0.26441924    -0.03300
C221        C  0.57788109  0.83691083  0.25044217     0.05400
C222        C  0.55271756  0.82536117  0.26588212     0.03400
H223        H  0.62679146  0.82688744  0.25910512     0.08500
H224        H  0.52898278  0.83124900  0.26219021     0.07400
N225        N  0.61918451  0.35376715  0.35759289    -0.27000
N226        N  0.60498103  0.37903150  0.36627190    -0.34900
C227        C  0.62534515  0.39784290  0.37973944     0.01300
C228        C  0.65357495  0.38362021  0.37977487     0.07400
C229        C  0.64883477  0.35565108  0.36579792    -0.05700
H230        H  0.61977122  0.41977698  0.38976905     0.08000
H231        H  0.66568370  0.33798127  0.36185352     0.09200
Cu232      Cu  0.55795151  0.38553438  0.36191307     0.44200
Cu233      Cu  0.59743756  0.31790145  0.33491403     0.42000
Cu234      Cu  0.51472607  0.32097180  0.33173952     0.43900
N235        N  0.51034295  0.38259179  0.36310801    -0.34400
N236        N  0.49467210  0.35854441  0.35341173    -0.28600
C237        C  0.46476873  0.36289866  0.35967597    -0.04700
C238        C  0.46147614  0.39119976  0.37342403     0.07500
C239        C  0.49076034  0.40306364  0.37522321     0.01300
H240        H  0.44674426  0.34675333  0.35441880     0.08900
H241        H  0.49747177  0.42456337  0.38552142     0.08000
N242        N  0.54074301  0.28817553  0.30865886    -0.35800
N243        N  0.57096590  0.28714502  0.30986663    -0.28000
C244        C  0.58097933  0.26450095  0.29152522    -0.03300
C245        C  0.55591125  0.25051203  0.27801808     0.05400
C246        C  0.53078264  0.26614865  0.28950771     0.03400
H247        H  0.60482605  0.25905856  0.28775928     0.08500
H248        H  0.50704957  0.26239860  0.28360437     0.07400
O249        O  0.57153109  0.09332643  0.02848362    -0.72700
O250        O  0.58163666  0.02258144  0.08590744    -0.73600
O251        O  0.57676552  0.02906918  0.02129307    -0.62300
O252        O  0.57623383  0.08697520  0.09306040    -0.70700
O253        O  0.52564448  0.08337974  0.09583996    -0.70200
O254        O  0.52641256  0.02383941  0.02562109    -0.61500
O255        O  0.53115266  0.01887782  0.09033528    -0.74000
O256        O  0.52108240  0.08840469  0.03128367    -0.72800
Cu257      Cu  0.57830366  0.05814458  0.05707248     1.04600
Cu258      Cu  0.52432390  0.05344448  0.06087428     1.04300
C259        C  0.54475382  0.10196071  0.02065644     0.93500
C260        C  0.55798341  0.00975013  0.09741419     0.92700
C261        C  0.55159320  0.01722678  0.01224132     0.84800
C262        C  0.55086504  0.09447301  0.10562714     0.91100
C263        C  0.39273022  0.40498389  0.42118199     0.80500
N264        N  0.41794291  0.39146978  0.40894118    -0.77800
C265        C  0.43324571  0.40501460  0.38547047     0.83000
N266        N  0.42315710  0.43210925  0.37418167    -0.77700
C267        C  0.39739287  0.44520855  0.38569553     0.83000
N268        N  0.38249620  0.43184250  0.40949893    -0.79500
N269        N  0.76038390  0.75343489  0.63512822    -0.27000
N270        N  0.74800683  0.73105441  0.61891357    -0.34900
C271        C  0.73260013  0.71226114  0.63775225     0.01300
C272        C  0.73508743  0.72342071  0.66714950     0.07400
C273        C  0.75267562  0.74964416  0.66477641    -0.05700
H274        H  0.71979573  0.69235286  0.63043837     0.08000
H275        H  0.75952851  0.76469534  0.68318133     0.09200
Cu276      Cu  0.75039647  0.72755763  0.57165937     0.44200
Cu277      Cu  0.78754816  0.78764823  0.61580651     0.42000
Cu278      Cu  0.79336636  0.78515830  0.53236094     0.43900
N279        N  0.75025885  0.73189045  0.52443935    -0.34400
N280        N  0.76549864  0.75358328  0.50985072    -0.28600
C281        C  0.75974631  0.75116738  0.47968188    -0.04700
C282        C  0.74016518  0.72666648  0.47520932     0.07500
C283        C  0.73469768  0.71490196  0.50399826     0.01300
H284        H  0.76926195  0.76599060  0.46229705     0.08900
H285        H  0.72009976  0.69572265  0.50973975     0.08000
N286        N  0.81890828  0.81445369  0.56010257    -0.35800
N287        N  0.81643807  0.81587067  0.59025340    -0.28000
C288        C  0.83603202  0.83722007  0.60086690    -0.03300
C289        C  0.85168174  0.84965052  0.57626516     0.05400
C290        C  0.84029197  0.83463439  0.55084862     0.03400
H291        H  0.83909941  0.84285570  0.62475584     0.08500
H292        H  0.84710210  0.83812668  0.52731009     0.07400
N293        N  0.36991721  0.76913972  0.49364565    -0.27000
N294        N  0.38065632  0.74531558  0.50877430    -0.34900
C295        C  0.39500178  0.72647163  0.48903036     0.01300
C296        C  0.39334991  0.73911959  0.46014345     0.07400
C297        C  0.37748347  0.76622503  0.46388136    -0.05700
H298        H  0.40648720  0.70554573  0.49537974     0.08000
H299        H  0.37185922  0.78259664  0.44628636     0.09200
Cu300      Cu  0.37716495  0.74083210  0.55598576     0.44200
Cu301      Cu  0.34542274  0.80437186  0.51471541     0.42000
Cu302      Cu  0.34795277  0.80643308  0.59796029     0.43900
N303        N  0.37861621  0.74488660  0.60333304    -0.34400
N304        N  0.36953223  0.76937824  0.61863799    -0.28600
C305        C  0.37550390  0.76526550  0.64858242    -0.04700
C306        C  0.38840650  0.73665154  0.65218137     0.07500
C307        C  0.38998686  0.72436682  0.62313500     0.01300
H308        H  0.37028009  0.78160796  0.66643353     0.08900
H309        H  0.39942121  0.70240784  0.61674658     0.08000
N310        N  0.32095250  0.83556287  0.57169877    -0.35800
N311        N  0.31971122  0.83455311  0.54148493    -0.28000
C312        C  0.29857018  0.85470151  0.53179985    -0.03300
C313        C  0.28591538  0.86919219  0.55705817     0.05400
C314        C  0.30073790  0.85645629  0.58194016     0.03400
H315        H  0.29235687  0.85809087  0.50811860     0.08500
H316        H  0.29631294  0.86121519  0.60581082     0.07400
N317        N  0.74836498  0.34955877  0.62210157    -0.27000
N318        N  0.72604181  0.36226830  0.60619007    -0.34900
C319        C  0.70692738  0.37681668  0.62549583     0.01300
C320        C  0.71797298  0.37346497  0.65486128     0.07400
C321        C  0.74427109  0.35615334  0.65194944    -0.05700
H322        H  0.68687141  0.38949529  0.61857924     0.08000
H323        H  0.75911068  0.34860567  0.67017301     0.09200
Cu324      Cu  0.72360131  0.36107424  0.55874378     0.44200
Cu325      Cu  0.78303778  0.32329226  0.60233133     0.42000
Cu326      Cu  0.78553438  0.32232329  0.51925579     0.43900
N327        N  0.73073549  0.36392371  0.51181721    -0.34400
N328        N  0.75375109  0.35055949  0.49733599    -0.28600
C329        C  0.75270850  0.35843871  0.46753561    -0.04700
C330        C  0.72776652  0.37740516  0.46317532     0.07500
C331        C  0.71433754  0.38031367  0.49165037     0.01300
H332        H  0.76884291  0.35086205  0.45032540     0.08900
H333        H  0.69445507  0.39387416  0.49743007     0.08000
N334        N  0.81440646  0.29600326  0.54686297    -0.35800
N335        N  0.81358600  0.29652684  0.57710064    -0.28000
C336        C  0.83479079  0.27702966  0.58795385    -0.03300
C337        C  0.84977821  0.26341068  0.56345311     0.05400
C338        C  0.83614009  0.27609529  0.53777944     0.03400
H339        H  0.83893543  0.27298481  0.61198008     0.08500
H340        H  0.84143223  0.27095979  0.51416292     0.07400
N341        N  0.35410749  0.35741851  0.60616181    -0.27000
N342        N  0.36533137  0.38192348  0.59243474    -0.34900
C343        C  0.37724229  0.40075292  0.61374504     0.01300
C344        C  0.37352626  0.38720238  0.64206875     0.07400
C345        C  0.35901086  0.35971267  0.63642365    -0.05700
H346        H  0.38862654  0.42220278  0.60887911     0.08000
H347        H  0.35234412  0.34269596  0.65309683     0.09200
Cu348      Cu  0.36546484  0.38707204  0.54507298     0.44200
Cu349      Cu  0.33197201  0.32236652  0.58313846     0.42000
Cu350      Cu  0.32716568  0.32767467  0.50052392     0.43900
N351        N  0.36699046  0.38420343  0.49749840    -0.34400
N352        N  0.35372177  0.36231644  0.48129332    -0.28600
C353        C  0.36050991  0.36643502  0.45148743    -0.04700
C354        C  0.37854098  0.39230170  0.44888197     0.07500
C355        C  0.38224382  0.40294411  0.47840043     0.01300
H356        H  0.35289282  0.35169851  0.43312828     0.08900
H357        H  0.39563851  0.42251372  0.48556218     0.08000
N358        N  0.30229198  0.29631465  0.52644601    -0.35800
N359        N  0.30458632  0.29427257  0.55651362    -0.28000
C360        C  0.28525532  0.27260478  0.56665531    -0.03300
C361        C  0.26984245  0.26039683  0.54187352     0.05400
C362        C  0.28127832  0.27595296  0.51669751     0.03400
H363        H  0.28215988  0.26663406  0.59045733     0.08500
H364        H  0.27435191  0.27315605  0.49312987     0.07400
O365        O  0.08973308  0.08969743  0.53290902    -0.72700
O366        O  0.02768657  0.02204201  0.53954372    -0.73600
O367        O  0.02437033  0.08733531  0.53701334    -0.62300
O368        O  0.09296643  0.02504571  0.53561188    -0.70700
O369        O  0.09475466  0.02624064  0.58619104    -0.70200
O370        O  0.02846119  0.09067371  0.58739830    -0.61500
O371        O  0.02903713  0.02536279  0.58978497    -0.74000
O372        O  0.09379295  0.09090974  0.58344999    -0.72800
Cu373      Cu  0.05851256  0.05593563  0.53454608     1.04600
Cu374      Cu  0.06153220  0.05833248  0.58845497     1.04300
C375        C  0.10210186  0.10045745  0.55708607     0.93500
C376        C  0.01810068  0.01298155  0.56563430     0.92700
C377        C  0.01590363  0.09918948  0.56243928     0.84800
C378        C  0.10500436  0.01611476  0.56069740     0.91100
C379        C  0.22341487  0.18797668  0.52639733    -0.05200
C380        C  0.19842877  0.19191961  0.54652801     0.09000
C381        C  0.19649982  0.21862176  0.56450425    -0.02600
C382        C  0.21958825  0.24112076  0.56270755    -0.00800
C383        C  0.24483737  0.23717422  0.54273102    -0.04400
C384        C  0.24635933  0.21067575  0.52420804     0.02600
C385        C  0.17388183  0.16805820  0.54877529     0.09400
C386        C  0.17064475  0.22285089  0.58495061     0.35300
C387        C  0.27187144  0.20632928  0.50338163     0.38700
C388        C  0.17829188  0.14189570  0.56705003    -0.04800
C389        C  0.15492436  0.11971432  0.56964362     0.02400
C390        C  0.12668922  0.12386852  0.55442847    -0.04400
C391        C  0.12230482  0.15016779  0.53621529    -0.00600
C392        C  0.14586894  0.17209080  0.53331984    -0.03200
C393        C  0.20684964  0.13801772  0.58341987     0.36100
C394        C  0.09318668  0.15520428  0.52119186     0.39700
C395        C  0.16043485  0.09207247  0.58706670     0.38800
C396        C  0.14125557  0.19906169  0.51466446     0.35700
C397        C  0.22563478  0.16032878  0.50820163     0.36400
C398        C  0.21671578  0.26879079  0.58079989     0.39700
N399        N  0.16488674  0.06995582  0.60082743    -0.38400
N400        N  0.22963393  0.13503413  0.59650280    -0.40000
N401        N  0.06992319  0.15921420  0.50927530    -0.37700
N402        N  0.13763591  0.22066367  0.49988707    -0.40100
N403        N  0.14992826  0.22617368  0.60114420    -0.39900
N404        N  0.21437767  0.29083832  0.59526103    -0.37500
N405        N  0.29212957  0.20291835  0.48662981    -0.38600
N406        N  0.22749241  0.13816356  0.49385435    -0.40200
C407        C  0.92402645  0.21990748  0.54620718    -0.05200
C408        C  0.92074339  0.19357026  0.56458293     0.09000
C409        C  0.89421154  0.19035088  0.58287414    -0.02600
C410        C  0.87118474  0.21310066  0.58267871    -0.00800
C411        C  0.87449222  0.23960028  0.56434573    -0.04400
C412        C  0.90131638  0.24293786  0.54638067     0.02600
C413        C  0.94512747  0.16911550  0.56435340     0.09400
C414        C  0.89041392  0.16332757  0.60167794     0.35300
C415        C  0.90620546  0.27058881  0.52877753     0.38700
C416        C  0.97337994  0.17394518  0.57931504    -0.04800
C417        C  0.99643834  0.15123791  0.57859806     0.02400
C418        C  0.99149732  0.12324428  0.56305286    -0.04400
C419        C  0.96320370  0.11848584  0.54805844    -0.00600
C420        C  0.94027879  0.14132225  0.54857744    -0.03200
C421        C  0.97885364  0.20255215  0.59519150     0.36100
C422        C  0.95719796  0.08971246  0.53273556     0.39700
C423        C  0.02578167  0.15726620  0.59286223     0.38800
C424        C  0.91170944  0.13641405  0.53247536     0.35700
C425        C  0.95070481  0.22304549  0.52665966     0.36400
C426        C  0.84357599  0.20855103  0.60060317     0.39700
N427        N  0.04925290  0.16209023  0.60410439    -0.38400
N428        N  0.98326086  0.22547898  0.60766505    -0.40000
N429        N  0.95217596  0.06678213  0.52052405    -0.37700
N430        N  0.88888254  0.13258662  0.51965658    -0.40100
N431        N  0.88724110  0.14169280  0.61654898    -0.39900
N432        N  0.82155101  0.20490690  0.61490844    -0.37500
N433        N  0.91022676  0.29269054  0.51481824    -0.38600
N434        N  0.97200313  0.22541830  0.51105806    -0.40200
C435        C  0.15872813  0.95011748  0.58156828    -0.05200
C436        C  0.18276759  0.95410071  0.56033385     0.09000
C437        C  0.18121642  0.97827872  0.53908232    -0.02600
C438        C  0.15588771  0.99839584  0.53907624    -0.00800
C439        C  0.13155260  0.99439198  0.56025177    -0.04400
C440        C  0.13322860  0.97000726  0.58148404     0.02600
C441        C  0.20934719  0.93224849  0.55973911     0.09400
C442        C  0.20579421  0.98233486  0.51709202     0.35300
C443        C  0.10824809  0.96455736  0.60266818     0.38700
C444        C  0.20658647  0.90384718  0.54463848    -0.04800
C445        C  0.23152281  0.88332824  0.54369176     0.02400
C446        C  0.25966126  0.89107949  0.55771636    -0.04400
C447        C  0.26233531  0.91949399  0.57298927    -0.00600
C448        C  0.23724263  0.93987528  0.57413522    -0.03200
C449        C  0.17781604  0.89563222  0.53032178     0.36100
C450        C  0.29120323  0.92818907  0.58682979     0.39700
C451        C  0.22771883  0.85371560  0.52923494     0.38800
C452        C  0.23996034  0.96862551  0.59043529     0.35700
C453        C  0.16024945  0.92531806  0.60347599     0.36400
C454        C  0.15552446  0.02380969  0.51781256     0.39700
N455        N  0.22463384  0.83006004  0.51776744    -0.38400
N456        N  0.15477822  0.88910637  0.51904713    -0.40000
N457        N  0.31427902  0.93513821  0.59778363    -0.37700
N458        N  0.24208168  0.99152222  0.60354331    -0.40100
N459        N  0.22545794  0.98547791  0.49959506    -0.39900
N460        N  0.15530387  0.04407440  0.50083713    -0.37500
N461        N  0.08836116  0.96002401  0.61958803    -0.38600
N462        N  0.16152282  0.90548465  0.62089678    -0.40200
C463        C  0.89322192  0.92602761  0.58456193    -0.05200
C464        C  0.92300239  0.91833819  0.57463026     0.09000
C465        C  0.92956153  0.88788887  0.56625601    -0.02600
C466        C  0.90631619  0.86543129  0.56700492    -0.00800
C467        C  0.87644651  0.87309420  0.57681492    -0.04400
C468        C  0.87015599  0.90337521  0.58618221     0.02600
C469        C  0.94741425  0.94244684  0.57237448     0.09400
C470        C  0.96030655  0.87976666  0.55674334     0.35300
C471        C  0.83973841  0.91143039  0.59675038     0.38700
C472        C  0.96592765  0.94933866  0.59775727    -0.04800
C473        C  0.98913406  0.97184166  0.59560994     0.02400
C474        C  0.99399083  0.98818426  0.56782433    -0.04400
C475        C  0.97530949  0.98058010  0.54218498    -0.00600
C476        C  0.95230324  0.95793023  0.54460930    -0.03200
C477        C  0.96113631  0.93290984  0.62617851     0.36100
C478        C  0.97914049  0.99587896  0.51300715     0.39700
C479        C  0.00828058  0.97722430  0.62213450     0.38800
C480        C  0.93344954  0.95038589  0.51836096     0.35700
C481        C  0.88620403  0.95746277  0.59237832     0.36400
C482        C  0.91330261  0.83424606  0.55818963     0.39700
N483        N  0.02335560  0.98133616  0.64347550    -0.38400
N484        N  0.95727568  0.91976729  0.64880736    -0.40000
N485        N  0.98208060  0.00777333  0.48955655    -0.37700
N486        N  0.91842124  0.94427917  0.49746945    -0.40100
N487        N  0.98488448  0.87335279  0.54923457    -0.39900
N488        N  0.91883855  0.80935078  0.55116505    -0.37500
N489        N  0.81550183  0.91784658  0.60531058    -0.38600
N490        N  0.88062548  0.98261177  0.59838508    -0.40200
C491        C  0.57071522  0.13257607  0.18158654    -0.05200
C492        C  0.55215933  0.15893565  0.18078347     0.09000
C493        C  0.53252721  0.16368413  0.15564723    -0.02600
C494        C  0.53171972  0.14243459  0.13129318    -0.00800
C495        C  0.55074928  0.11631140  0.13179057    -0.04400
C496        C  0.56996235  0.11130353  0.15726278     0.02600
C497        C  0.55368341  0.18203949  0.20618780     0.09400
C498        C  0.51337980  0.19070105  0.15476282     0.35300
C499        C  0.58820728  0.08368606  0.15894709     0.38700
C500        C  0.57225832  0.20826358  0.20308389    -0.04800
C501        C  0.57351132  0.23028143  0.22672076     0.02400
C502        C  0.55594092  0.22640303  0.25371586    -0.04400
C503        C  0.53774921  0.19978667  0.25696514    -0.00600
C504        C  0.53658667  0.17777708  0.23327135    -0.03200
C505        C  0.58987138  0.21269367  0.17527528     0.36100
C506        C  0.52102245  0.19444087  0.28513758     0.39700
C507        C  0.59230590  0.25734348  0.22271157     0.38800
C508        C  0.51766473  0.15071316  0.23660254     0.35700
C509        C  0.59074413  0.12747931  0.20745004     0.36400
C510        C  0.51192009  0.14797806  0.10530792     0.39700
N511        N  0.60742884  0.27885158  0.21950859    -0.38400
N512        N  0.60380722  0.21621100  0.15301823    -0.40000
N513        N  0.50779411  0.19002637  0.30766471    -0.37700
N514        N  0.50261463  0.12906884  0.23914600    -0.40100
N515        N  0.49818702  0.21232048  0.15407053    -0.39900
N516        N  0.49609742  0.15233861  0.08459148    -0.37500
N517        N  0.60259074  0.06154531  0.16024554    -0.38600
N518        N  0.60670582  0.12342937  0.22811602    -0.40200
C519        C  0.54989021  0.96060530  0.16881810    -0.05200
C520        C  0.56873977  0.93549587  0.16141989     0.09000
C521        C  0.58413293  0.93479062  0.13303680    -0.02600
C522        C  0.58040184  0.95887803  0.11194633    -0.00800
C523        C  0.56170461  0.98417630  0.11940341    -0.04400
C524        C  0.54666140  0.98504405  0.14806104     0.02600
C525        C  0.57215427  0.90957666  0.18348746     0.09400
C526        C  0.60379711  0.90916207  0.12560434     0.35300
C527        C  0.52875456  0.01160736  0.15669446     0.38700
C528        C  0.55325726  0.88357514  0.18094080    -0.04800
C529        C  0.55604873  0.85931143  0.20198341     0.02400
C530        C  0.57739608  0.86112030  0.22629943    -0.04400
C531        C  0.59667907  0.88714015  0.22842307    -0.00600
C532        C  0.59409594  0.91114511  0.20701067    -0.03200
C533        C  0.53056396  0.88209416  0.15681655     0.36100
C534        C  0.61831549  0.89010576  0.25333567     0.39700
C535        C  0.53728041  0.83220953  0.19804779     0.38800
C536        C  0.61365813  0.93786398  0.20942182     0.35700
C537        C  0.53374341  0.96118091  0.19782430     0.36400
C538        C  0.59495944  0.95707219  0.08214654     0.39700
N539        N  0.52226410  0.81063706  0.19478576    -0.38400
N540        N  0.51243283  0.88107910  0.13759902    -0.40000
N541        N  0.63566037  0.89261949  0.27314003    -0.37700
N542        N  0.62918418  0.95923855  0.21128583    -0.40100
N543        N  0.61952500  0.88870225  0.11979988    -0.39900
N544        N  0.60643336  0.95560001  0.05831157    -0.37500
N545        N  0.51464476  0.03290736  0.16356755    -0.38600
N546        N  0.52079785  0.96156981  0.22093633    -0.40200
C547        C  0.55696885  0.17845336  0.98062917    -0.05200
C548        C  0.53705725  0.17566847  0.95542761     0.09000
C549        C  0.51851466  0.14939976  0.95250517    -0.02600
C550        C  0.52051334  0.12557779  0.97411110    -0.00800
C551        C  0.54124556  0.12780806  0.99884251    -0.04400
C552        C  0.55912218  0.15462364  0.00223781     0.02600
C553        C  0.53651732  0.19978374  0.93113672     0.09400
C554        C  0.49764606  0.14677355  0.92688779     0.35300
C555        C  0.57927565  0.15807455  0.02835458     0.38700
C556        C  0.55245051  0.19504521  0.90344720    -0.04800
C557        C  0.55175154  0.21738564  0.88023926     0.02400
C558        C  0.53551142  0.24499947  0.88471696    -0.04400
C559        C  0.51909581  0.24945156  0.91231595    -0.00600
C560        C  0.51962138  0.22690075  0.93541249    -0.03200
C561        C  0.56940727  0.16692439  0.89880829     0.36100
C562        C  0.50203462  0.27741929  0.91728169     0.39700
C563        C  0.56655842  0.21117590  0.85116990     0.38800
C564        C  0.50265026  0.23142748  0.96359543     0.35700
C565        C  0.57540685  0.20582284  0.98418307     0.36400
C566        C  0.50198747  0.09831148  0.97010153     0.39700
N567        N  0.57819258  0.20606379  0.82792371    -0.38400
N568        N  0.58279902  0.14440997  0.89519391    -0.40000
N569        N  0.48828334  0.29965235  0.92128625    -0.37700
N570        N  0.48915387  0.23493209  0.98612575    -0.40100
N571        N  0.48109339  0.14472549  0.90637349    -0.39900
N572        N  0.48714930  0.07660221  0.96693508    -0.37500
N573        N  0.59531498  0.16075038  0.04921174    -0.38600
N574        N  0.59001011  0.22771726  0.98713118    -0.40200
C575        C  0.53370800  0.93356957  0.88519349    -0.05200
C576        C  0.55305686  0.93087518  0.91080209     0.09000
C577        C  0.57410465  0.90652291  0.91224618    -0.02600
C578        C  0.57540425  0.88457937  0.88858397    -0.00800
C579        C  0.55632851  0.88738780  0.86256580    -0.04400
C580        C  0.53557333  0.91221590  0.86100763     0.02600
C581        C  0.55146793  0.95369032  0.93640190     0.09400
C582        C  0.59457087  0.90417064  0.93821332     0.35300
C583        C  0.51660759  0.91646602  0.83417186     0.38700
C584        C  0.53708583  0.94587079  0.96426376    -0.04800
C585        C  0.53753021  0.96644459  0.98915057     0.02400
C586        C  0.55152624  0.99544886  0.98607110    -0.04400
C587        C  0.56519696  0.00357948  0.95786857    -0.00600
C588        C  0.56537321  0.98266572  0.93323060    -0.03200
C589        C  0.52174304  0.91659539  0.96723895     0.36100
C590        C  0.57834688  0.03378241  0.95386008     0.39700
C591        C  0.52475017  0.95719790  0.01836986     0.38800
C592        C  0.57994271  0.99084938  0.90454275     0.35700
C593        C  0.51180512  0.95839514  0.88378781     0.36400
C594        C  0.59550997  0.85846388  0.89193290     0.39700
N595        N  0.51478816  0.94982159  0.04177249    -0.38400
N596        N  0.50940592  0.89328152  0.96953752    -0.40000
N597        N  0.58873056  0.05791324  0.95058002    -0.37700
N598        N  0.59142889  0.99725873  0.88155309    -0.40100
N599        N  0.61088379  0.90243808  0.95893722    -0.39900
N600        N  0.61155023  0.83765411  0.89482529    -0.37500
N601        N  0.50143602  0.91988739  0.81279939    -0.38600
N602        N  0.49435130  0.97821452  0.88263734    -0.40200
C603        C  0.14827295  0.54446037  0.16835183    -0.05200
C604        C  0.17058293  0.56773228  0.16608723     0.09000
C605        C  0.16955834  0.58820164  0.14123640    -0.02600
C606        C  0.14618640  0.58579681  0.11905935    -0.00800
C607        C  0.12301751  0.56319543  0.12180080    -0.04400
C608        C  0.12473697  0.54204001  0.14628719     0.02600
C609        C  0.19609887  0.56990705  0.18906838     0.09400
C610        C  0.19310083  0.61142691  0.13820939     0.35300
C611        C  0.10245890  0.51758526  0.14894879     0.38700
C612        C  0.22189565  0.55074788  0.18638404    -0.04800
C613        C  0.24616786  0.55296187  0.20758751     0.02400
C614        C  0.24486483  0.57428688  0.23198265    -0.04400
C615        C  0.21932484  0.59410534  0.23407715    -0.00600
C616        C  0.19500646  0.59173193  0.21285894    -0.03200
C617        C  0.22349873  0.52884673  0.16150137     0.36100
C618        C  0.21757249  0.61657025  0.25841713     0.39700
C619        C  0.27309868  0.53407384  0.20339565     0.38800
C620        C  0.16855592  0.61151758  0.21567208     0.35700
C621        C  0.14965455  0.52288011  0.19345284     0.36400
C622        C  0.14734497  0.60535114  0.09231181     0.39700
N623        N  0.29462021  0.51908259  0.19990330    -0.38400
N624        N  0.22463213  0.51138527  0.14163571    -0.40000
N625        N  0.21617753  0.63467541  0.27768632    -0.37700
N626        N  0.14741611  0.62726491  0.21788586    -0.40100
N627        N  0.21194037  0.62991396  0.13594156    -0.39900
N628        N  0.14849966  0.62071446  0.07081979    -0.37500
N629        N  0.08501123  0.49776645  0.15102390    -0.38600
N630        N  0.15079982  0.50560325  0.21342363    -0.40200
C631        C  0.91535117  0.57096880  0.21388439    -0.05200
C632        C  0.91010518  0.55679316  0.18538692     0.09000
C633        C  0.88130822  0.54355827  0.17923915    -0.02600
C634        C  0.85801747  0.54397065  0.20168280    -0.00800
C635        C  0.86323087  0.55801231  0.23035211    -0.04400
C636        C  0.89195389  0.57183597  0.23620618     0.02600
C637        C  0.93501567  0.55586613  0.16177143     0.09400
C638        C  0.87570522  0.52960154  0.14968186     0.35300
C639        C  0.89787665  0.58619229  0.26551921     0.38700
C640        C  0.95536672  0.53095474  0.16056378    -0.04800
C641        C  0.97959617  0.53054650  0.13906956     0.02400
C642        C  0.98353896  0.55512639  0.11820964    -0.04400
C643        C  0.96164107  0.57915672  0.11840007    -0.00600
C644        C  0.93806667  0.57980862  0.14052393    -0.03200
C645        C  0.95127174  0.50569511  0.18164797     0.36100
C646        C  0.96206908  0.60254013  0.09488713     0.39700
C647        C  0.00027570  0.50467843  0.13881429     0.38800
C648        C  0.91677450  0.60520810  0.14149276     0.35700
C649        C  0.94506285  0.58433639  0.22029317     0.36400
C650        C  0.82838097  0.53064911  0.19490826     0.39700
N651        N  0.01640062  0.48373112  0.13862165    -0.38400
N652        N  0.94782386  0.48555361  0.19843227    -0.40000
N653        N  0.96216454  0.62105129  0.07600819    -0.37700
N654        N  0.89984003  0.62549281  0.14238201    -0.40100
N655        N  0.87131345  0.51855004  0.12603979    -0.39900
N656        N  0.80472108  0.52004591  0.18949028    -0.37500
N657        N  0.90265048  0.59773997  0.28885266    -0.38600
N658        N  0.96882711  0.59488511  0.22535457    -0.40200
C659        C  0.19432819  0.54790554  0.89794200    -0.05200
C660        C  0.19953296  0.56351505  0.92571014     0.09000
C661        C  0.22789602  0.57815629  0.93068474    -0.02600
C662        C  0.25087677  0.57735567  0.90792329    -0.00800
C663        C  0.24566455  0.56182012  0.88002978    -0.04400
C664        C  0.21727062  0.54703238  0.87519248     0.02600
C665        C  0.17484981  0.56463372  0.94955234     0.09400
C666        C  0.23336085  0.59404480  0.95928521     0.35300
C667        C  0.21118015  0.53172464  0.84640038     0.38700
C668        C  0.17575038  0.54476131  0.97487306    -0.04800
C669        C  0.15153983  0.54448727  0.99630158     0.02400
C670        C  0.12589690  0.56389288  0.99239556    -0.04400
C671        C  0.12574462  0.58471081  0.96758832    -0.00600
C672        C  0.15007740  0.58496270  0.94627116    -0.07600
C673        C  0.20162400  0.52442919  0.97875326     0.36100
C674        C  0.10039806  0.60557233  0.96335434     0.39700
C675        C  0.15370194  0.52495000  0.02299952     0.38800
C676        C  0.14959282  0.60599709  0.92065006     0.35700
C677        C  0.16517391  0.53284448  0.89279730     0.36400
C678        C  0.28020584  0.59183884  0.91358720     0.39700
N679        N  0.15542401  0.50947645  0.04436316    -0.38400
N680        N  0.22232917  0.50829798  0.98189423    -0.40000
N681        N  0.08049740  0.62256826  0.95973541    -0.37700
N682        N  0.14927017  0.62268172  0.90014836    -0.40100
N683        N  0.23770023  0.60660680  0.98217444    -0.39900
N684        N  0.30362930  0.60334980  0.91812467    -0.37500
N685        N  0.20623938  0.51952767  0.82343638    -0.38600
N686        N  0.14183718  0.52096611  0.88878867    -0.40200
C687        C  0.92653942  0.53158069  0.88811371    -0.05200
C688        C  0.91925241  0.54457965  0.91677070     0.09000
C689        C  0.88951666  0.55596822  0.92206102    -0.02600
C690        C  0.86742112  0.55513363  0.89858941    -0.00800
C691        C  0.87477524  0.54245143  0.86974852    -0.04400
C692        C  0.90440811  0.53060663  0.86462745     0.02600
C693        C  0.94320913  0.54739621  0.94112574     0.09400
C694        C  0.88167980  0.56839901  0.95181921     0.35300
C695        C  0.91253865  0.51864829  0.83476002     0.38700
C696        C  0.96104350  0.57416906  0.94320839    -0.04800
C697        C  0.98302897  0.57750789  0.96664335     0.02400
C698        C  0.98810785  0.55353383  0.98792596    -0.04400
C699        C  0.96942950  0.52689151  0.98600102    -0.00600
C700        C  0.94731369  0.52388762  0.96264796    -0.03200
C701        C  0.95676109  0.59831103  0.92090978     0.36100
C702        C  0.97166499  0.50293874  0.00880579     0.39700
C703        C  0.00000106  0.60593118  0.96861190     0.38800
C704        C  0.92851265  0.49657538  0.96077118     0.35700
C705        C  0.95690986  0.51934470  0.88284099     0.36400
C706        C  0.83698409  0.56708020  0.90426184     0.39700
N707        N  0.01291744  0.62898739  0.97018028    -0.38400
N708        N  0.95332497  0.61742610  0.90299408    -0.40000
N709        N  0.97328960  0.48382738  0.02699630    -0.37700
N710        N  0.91350961  0.47480595  0.95922155    -0.40100
N711        N  0.87545672  0.57815707  0.97563681    -0.39900
N712        N  0.81272505  0.57669190  0.90874142    -0.37500
N713        N  0.91906350  0.50931644  0.81085003    -0.38600
N714        N  0.98113410  0.50949011  0.87873749    -0.40200
loop_ 
_geom_bond_atom_site_label_1 
_geom_bond_atom_site_label_2 
_geom_bond_distance 
_geom_bond_site_symmetry_2 
_ccdc_geom_bond_type 
C1            N2   1.359       .  A
C1            N6   1.358       .  A
C1          C272   1.466       .  S
N2            C3   1.360       .  A
C3            N4   1.359       .  A
C3          C156   1.467       .  S
N4            C5   1.358       .  A
C5            N6   1.358       .  A
C5           C56   1.465       .  S
C7            N8   1.359       .  A
C7           N12   1.360       .  A
C7          C320   1.468       .  S
N8            C9   1.358       .  A
C9           N10   1.358       .  A
C9          C190   1.466       .  S
N10          C11   1.358       .  A
C11          N12   1.360       .  A
C11          C46   1.468       .  S
C13          N14   1.359       .  A
C13          N18   1.357       .  A
C13         C180   1.465       .  S
N14          C15   1.359       .  A
C15          N16   1.360       .  A
C15          C70   1.467       .  S
N16          C17   1.359       .  A
C17          N18   1.357       .  A
C17         C344   1.467       .  S
C19          N20   1.359       .  A
C19          N24   1.359       .  A
C19         C306   1.468       .  S
N20          C21   1.358       .  A
C21          N22   1.358       .  A
C21          C80   1.465       .  S
N22          C23   1.358       .  A
C23          N24   1.359       .  A
C23         C166   1.466       .  S
C25          N26   1.361       .  A
C25          N30   1.360       .  A
C25         C296   1.471       .  S
N26          C27   1.361       .  A
C27          N28   1.358       .  A
C27         C128   1.469       .  S
N28          C29   1.358       .  A
C29          N30   1.359       .  A
C29         C214   1.468       .  S
C31          N32   1.359       .  A
C31          N36   1.360       .  A
C31         C204   1.471       .  S
N32          C33   1.360       .  A
C33          N34   1.359       .  A
C33         C104   1.469       .  S
N34          C35   1.359       .  A
C35          N36   1.360       .  A
C35         C282   1.469       .  S
C37          N38   1.361       .  A
C37          N42   1.359       .  A
C37         C330   1.472       .  S
N38          C39   1.361       .  A
C39          N40   1.360       .  A
C39          C94   1.472       .  S
N40          C41   1.359       .  A
C41          N42   1.359       .  A
C41         C228   1.470       .  S
N43          C47   1.349       .  A
N43          N44   1.324       .  A
N43         Cu51   2.089       .  S
N44          C45   1.345       .  A
N44         Cu50   2.079       .  S
C45          C46   1.380       .  A
C45          H48   1.082       .  S
C46          C47   1.383       .  A
C47          H49   1.082       .  S
Cu50         N53   2.078       .  S
Cu51         N61   2.088       .  S
Cu52         N54   2.073       .  S
Cu52         N60   2.073       .  S
N53          C57   1.347       .  A
N53          N54   1.322       .  A
N54          C55   1.344       .  A
C55          C56   1.380       .  A
C55          H58   1.082       .  S
C56          C57   1.382       .  A
C57          H59   1.082       .  S
N60          C64   1.345       .  A
N60          N61   1.323       .  A
N61          C62   1.348       .  A
C62          C63   1.386       .  A
C62          H65   1.082       .  S
C63         C691   1.488       .  S
C63          C64   1.382       .  A
C64          H66   1.082       .  S
N67          C71   1.348       .  A
N67          N68   1.323       .  A
N67         Cu75   2.084       .  S
N68          C69   1.345       .  A
N68         Cu74   2.073       .  S
C69          C70   1.380       .  A
C69          H72   1.083       .  S
C70          C71   1.384       .  A
C71          H73   1.082       .  S
Cu74         N77   2.073       .  S
Cu75         N85   2.084       .  S
Cu76         N78   2.083       .  S
Cu76         N84   2.083       .  S
N77          C81   1.346       .  A
N77          N78   1.323       .  A
N78          C79   1.347       .  A
C79          C80   1.383       .  A
C79          H82   1.082       .  S
C80          C81   1.380       .  A
C81          H83   1.083       .  S
N84          C88   1.347       .  A
N84          N85   1.323       .  A
N85          C86   1.347       .  A
C86          C87   1.385       .  A
C86          H89   1.079       .  S
C87         C663   1.490       .  S
C87          C88   1.385       .  A
C88          H90   1.080       .  S
N91          C95   1.348       .  A
N91          N92   1.324       .  A
N91         Cu99   2.089       .  S
N92          C93   1.347       .  A
N92         Cu98   2.087       .  S
C93          C94   1.383       .  A
C93          H96   1.083       .  S
C94          C95   1.384       .  A
C95          H97   1.082       .  S
Cu98        N101   2.087       .  S
Cu99        N109   2.088       .  S
Cu100       N102   2.075       .  S
Cu100       N108   2.076       .  S
N101        C105   1.347       .  A
N101        N102   1.323       .  A
N102        C103   1.346       .  A
C103        C104   1.381       .  A
C103        H106   1.082       .  S
C104        C105   1.384       .  A
C105        H107   1.083       .  S
N108        C112   1.346       .  A
N108        N109   1.323       .  A
N109        C110   1.347       .  A
C110        C111   1.386       .  A
C110        H113   1.082       .  S
C111        C635   1.491       .  S
C111        C112   1.384       .  A
C112        H114   1.082       .  S
N115        C119   1.349       .  A
N115        N116   1.322       .  A
N115       Cu123   2.089       .  S
N116        C117   1.346       .  A
N116       Cu122   2.071       .  S
C117        C118   1.380       .  A
C117        H120   1.082       .  S
C118        C267   1.469       .  S
C118        C119   1.385       .  A
C119        H121   1.082       .  S
Cu122       N125   2.071       .  S
Cu123       N133   2.089       .  S
Cu124       N126   2.099       .  S
Cu124       N132   2.100       .  S
N125        C129   1.344       .  A
N125        N126   1.324       .  A
N126        C127   1.351       .  A
C127        C128   1.386       .  A
C127        H130   1.081       .  S
C128        C129   1.378       .  A
C129        H131   1.082       .  S
N132        C136   1.351       .  A
N132        N133   1.324       .  A
N133        C134   1.346       .  A
C134        C135   1.386       .  A
C134        H137   1.082       .  S
C135        C614   1.500       .  S
C135        C136   1.390       .  A
C136        H138   1.082       .  S
O139       Cu147   2.024       .  S
O139        C149   1.280       .  A
O140       Cu147   2.013       .  S
O140        C150   1.279       .  A
O141       Cu147   2.020       .  S
O141        C151   1.279       .  A
O142       Cu147   2.009       .  S
O142        C152   1.278       .  A
O143       Cu148   2.028       .  S
O143        C152   1.280       .  A
O144       Cu148   2.023       .  S
O144        C151   1.280       .  A
O145       Cu148   2.013       .  S
O145        C150   1.278       .  A
O146       Cu148   2.007       .  S
O146        C149   1.278       .  A
Cu147      Cu148   2.363       .  S
C149        C642   1.504   1_455  S
C150        C670   1.495   1_554  S
C151        C607   1.501       .  S
C152        C698   1.507   1_454  S
N153        C157   1.347       .  A
N153        N154   1.324       .  A
N153       Cu161   2.082       .  S
N154        C155   1.345       .  A
N154       Cu160   2.081       .  S
C155        C156   1.381       .  A
C155        H158   1.083       .  S
C156        C157   1.382       .  A
C157        H159   1.082       .  S
Cu160       N163   2.081       .  S
Cu161       N171   2.082       .  S
Cu162       N164   2.067       .  S
Cu162       N170   2.068       .  S
N163        C167   1.346       .  A
N163        N164   1.322       .  A
N164        C165   1.345       .  A
C165        C166   1.380       .  A
C165        H168   1.082       .  S
C166        C167   1.384       .  A
C167        H169   1.083       .  S
N170        C174   1.344       .  A
N170        N171   1.321       .  A
N171        C172   1.347       .  A
C172        C173   1.390       .  A
C172        H175   1.081       .  S
C173        C579   1.497       .  S
C173        C174   1.386       .  A
C174        H176   1.081       .  S
N177        C181   1.349       .  A
N177        N178   1.323       .  A
N177       Cu185   2.084       .  S
N178        C179   1.343       .  A
N178       Cu184   2.072       .  S
C179        C180   1.379       .  A
C179        H182   1.082       .  S
C180        C181   1.383       .  A
C181        H183   1.082       .  S
Cu184       N187   2.072       .  S
Cu185       N195   2.084       .  S
Cu186       N188   2.082       .  S
Cu186       N194   2.083       .  S
N187        C191   1.346       .  A
N187        N188   1.322       .  A
N188        C189   1.347       .  A
C189        C190   1.383       .  A
C189        H192   1.081       .  S
C190        C191   1.381       .  A
C191        H193   1.082       .  S
N194        C198   1.346       .  A
N194        N195   1.323       .  A
N195        C196   1.348       .  A
C196        C197   1.386       .  A
C196        H199   1.081       .  S
C197        C558   1.492       .  S
C197        C198   1.385       .  A
C198        H200   1.082       .  S
N201        C205   1.350       .  A
N201        N202   1.325       .  A
N201       Cu209   2.095       .  S
N202        C203   1.345       .  A
N202       Cu208   2.083       .  S
C203        C204   1.381       .  A
C203        H206   1.082       .  S
C204        C205   1.385       .  A
C205        H207   1.082       .  S
Cu208       N211   2.083       .  S
Cu209       N219   2.094       .  S
Cu210       N212   2.071       .  S
Cu210       N218   2.072       .  S
N211        C215   1.347       .  A
N211        N212   1.322       .  A
N212        C213   1.346       .  A
C213        C214   1.382       .  A
C213        H216   1.082       .  S
C214        C215   1.384       .  A
C215        H217   1.082       .  S
N218        C222   1.343       .  A
N218        N219   1.322       .  A
N219        C220   1.349       .  A
C220        C221   1.391       .  A
C220        H223   1.081       .  S
C221        C530   1.497       .  S
C221        C222   1.384       .  A
C222        H224   1.082       .  S
N225        C229   1.348       .  A
N225        N226   1.324       .  A
N225       Cu233   2.084       .  S
N226        C227   1.347       .  A
N226       Cu232   2.084       .  S
C227        C228   1.383       .  A
C227        H230   1.083       .  S
C228        C229   1.383       .  A
C229        H231   1.082       .  S
Cu232       N235   2.085       .  S
Cu233       N243   2.085       .  S
Cu234       N236   2.090       .  S
Cu234       N242   2.090       .  S
N235        C239   1.347       .  A
N235        N236   1.324       .  A
N236        C237   1.348       .  A
C237        C238   1.383       .  A
C237        H240   1.082       .  S
C238        C265   1.471       .  S
C238        C239   1.382       .  A
C239        H241   1.083       .  S
N242        C246   1.348       .  A
N242        N243   1.323       .  A
N243        C244   1.347       .  A
C244        C245   1.387       .  A
C244        H247   1.081       .  S
C245        C502   1.496       .  S
C245        C246   1.388       .  A
C246        H248   1.081       .  S
O249       Cu257   2.008       .  S
O249        C259   1.278       .  A
O250       Cu257   2.010       .  S
O250        C260   1.278       .  A
O251       Cu257   2.017       .  S
O251        C261   1.278       .  A
O252       Cu257   2.018       .  S
O252        C262   1.279       .  A
O253       Cu258   2.013       .  S
O253        C262   1.278       .  A
O254       Cu258   2.014       .  S
O254        C261   1.278       .  A
O255       Cu258   2.012       .  S
O255        C260   1.278       .  A
O256       Cu258   2.011       .  S
O256        C259   1.278       .  A
Cu257      Cu258   2.373       .  S
C259        C551   1.489   1_554  S
C260        C523   1.486   1_545  S
C261        C586   1.488   1_544  S
C262        C495   1.490       .  S
C263        N264   1.360       .  A
C263        N268   1.359       .  A
C263        C354   1.469       .  S
N264        C265   1.360       .  A
C265        N266   1.360       .  A
N266        C267   1.360       .  A
C267        N268   1.359       .  A
N269        C273   1.349       .  A
N269        N270   1.324       .  A
N269       Cu277   2.087       .  S
N270        C271   1.344       .  A
N270       Cu276   2.075       .  S
C271        C272   1.379       .  A
C271        H274   1.083       .  S
C272        C273   1.384       .  A
C273        H275   1.082       .  S
Cu276       N279   2.074       .  S
Cu277       N287   2.088       .  S
Cu278       N280   2.087       .  S
Cu278       N286   2.088       .  S
N279        C283   1.347       .  A
N279        N280   1.322       .  A
N280        C281   1.348       .  A
C281        C282   1.384       .  A
C281        H284   1.082       .  S
C282        C283   1.381       .  A
C283        H285   1.083       .  S
N286        C290   1.346       .  A
N286        N287   1.324       .  A
N287        C288   1.349       .  A
C288        C289   1.385       .  A
C288        H291   1.082       .  S
C289        C467   1.490       .  S
C289        C290   1.384       .  A
C290        H292   1.082       .  S
N293        C297   1.348       .  A
N293        N294   1.323       .  A
N293       Cu301   2.090       .  S
N294        C295   1.347       .  A
N294       Cu300   2.080       .  S
C295        C296   1.382       .  A
C295        H298   1.082       .  S
C296        C297   1.384       .  A
C297        H299   1.081       .  S
Cu300       N303   2.079       .  S
Cu301       N311   2.091       .  S
Cu302       N304   2.086       .  S
Cu302       N310   2.086       .  S
N303        C307   1.345       .  A
N303        N304   1.324       .  A
N304        C305   1.349       .  A
C305        C306   1.384       .  A
C305        H308   1.082       .  S
C306        C307   1.380       .  A
C307        H309   1.082       .  S
N310        C314   1.348       .  A
N310        N311   1.323       .  A
N311        C312   1.348       .  A
C312        C313   1.387       .  A
C312        H315   1.082       .  S
C313        C446   1.496       .  S
C313        C314   1.386       .  A
C314        H316   1.081       .  S
N317        C321   1.348       .  A
N317        N318   1.324       .  A
N317       Cu325   2.088       .  S
N318        C319   1.346       .  A
N318       Cu324   2.079       .  S
C319        C320   1.381       .  A
C319        H322   1.082       .  S
C320        C321   1.383       .  A
C321        H323   1.081       .  S
Cu324       N327   2.079       .  S
Cu325       N335   2.090       .  S
Cu326       N328   2.096       .  S
Cu326       N334   2.096       .  S
N327        C331   1.346       .  A
N327        N328   1.324       .  A
N328        C329   1.350       .  A
C329        C330   1.385       .  A
C329        H332   1.082       .  S
C330        C331   1.381       .  A
C331        H333   1.082       .  S
N334        C338   1.349       .  A
N334        N335   1.323       .  A
N335        C336   1.348       .  A
C336        C337   1.389       .  A
C336        H339   1.082       .  S
C337        C411   1.503       .  S
C337        C338   1.390       .  A
C338        H340   1.081       .  S
N341        C345   1.345       .  A
N341        N342   1.323       .  A
N341       Cu349   2.073       .  S
N342        C343   1.348       .  A
N342       Cu348   2.084       .  S
C343        C344   1.383       .  A
C343        H346   1.083       .  S
C344        C345   1.381       .  A
C345        H347   1.082       .  S
Cu348       N351   2.085       .  S
Cu349       N359   2.073       .  S
Cu350       N352   2.084       .  S
Cu350       N358   2.084       .  S
N351        C355   1.346       .  A
N351        N352   1.324       .  A
N352        C353   1.349       .  A
C353        C354   1.382       .  A
C353        H356   1.082       .  S
C354        C355   1.382       .  A
C355        H357   1.083       .  S
N358        C362   1.348       .  A
N358        N359   1.322       .  A
N359        C360   1.344       .  A
C360        C361   1.384       .  A
C360        H363   1.082       .  S
C361        C383   1.491       .  S
C361        C362   1.387       .  A
C362        H364   1.082       .  S
O365       Cu373   2.010       .  S
O365        C375   1.278       .  A
O366       Cu373   2.013       .  S
O366        C376   1.278       .  A
O367       Cu373   2.033       .  S
O367        C377   1.280       .  A
O368       Cu373   2.026       .  S
O368        C378   1.280       .  A
O369       Cu374   2.024       .  S
O369        C378   1.279       .  A
O370       Cu374   2.025       .  S
O370        C377   1.279       .  A
O371       Cu374   2.023       .  S
O371        C376   1.280       .  A
O372       Cu374   2.015       .  S
O372        C375   1.279       .  A
Cu373      Cu374   2.364       .  S
C375        C390   1.487       .  S
C376        C474   1.514   1_445  S
C377        C418   1.500   1_455  S
C378        C439   1.501   1_545  S
C379        C380   1.412       .  A
C379        C384   1.413       .  A
C379        C397   1.450       .  S
C380        C385   1.499       .  S
C380        C381   1.410       .  A
C381        C382   1.410       .  A
C381        C386   1.451       .  S
C382        C383   1.416       .  A
C382        C398   1.451       .  S
C383        C384   1.415       .  A
C384        C387   1.450       .  S
C385        C388   1.411       .  A
C385        C392   1.411       .  A
C386        N403   1.157       .  T
C387        N405   1.157       .  T
C388        C389   1.412       .  A
C388        C393   1.451       .  S
C389        C390   1.415       .  A
C389        C395   1.451       .  S
C390        C391   1.414       .  A
C391        C392   1.411       .  A
C391        C394   1.451       .  S
C392        C396   1.450       .  S
C393        N400   1.157       .  T
C394        N401   1.157       .  T
C395        N399   1.157       .  T
C396        N402   1.157       .  T
C397        N406   1.157       .  T
C398        N404   1.157       .  T
C407        C408   1.413       .  A
C407        C412   1.416       .  A
C407        C425   1.450       .  S
C408        C413   1.512       .  S
C408        C409   1.414       .  A
C409        C410   1.417       .  A
C409        C414   1.450       .  S
C410        C411   1.418       .  A
C410        C426   1.451       .  S
C411        C412   1.417       .  A
C412        C415   1.450       .  S
C413        C416   1.414       .  A
C413        C420   1.413       .  A
C414        N431   1.157       .  T
C415        N433   1.157       .  T
C416        C417   1.417       .  A
C416        C421   1.450       .  S
C417        C418   1.417       .  A
C417        C423   1.451   1_655  S
C418        C419   1.416       .  A
C419        C420   1.416       .  A
C419        C422   1.449       .  S
C420        C424   1.450       .  S
C421        N428   1.157       .  T
C422        N429   1.157       .  T
C423        N427   1.157       .  T
C424        N430   1.157       .  T
C425        N434   1.157       .  T
C426        N432   1.157       .  T
C435        C436   1.411       .  A
C435        C440   1.415       .  A
C435        C453   1.450       .  S
C436        C441   1.506       .  S
C436        C437   1.411       .  A
C437        C438   1.416       .  A
C437        C442   1.451       .  S
C438        C439   1.419       .  A
C438        C454   1.451   1_565  S
C439        C440   1.418       .  A
C440        C443   1.450       .  S
C441        C444   1.412       .  A
C441        C448   1.413       .  A
C442        N459   1.157       .  T
C443        N461   1.157       .  T
C444        C445   1.414       .  A
C444        C449   1.450       .  S
C445        C446   1.416       .  A
C445        C451   1.450       .  S
C446        C447   1.415       .  A
C447        C448   1.415       .  A
C447        C450   1.450       .  S
C448        C452   1.450       .  S
C449        N456   1.157       .  T
C450        N457   1.157       .  T
C451        N455   1.157       .  T
C452        N458   1.157       .  T
C453        N462   1.157       .  T
C454        N460   1.157       .  T
C463        C464   1.412       .  A
C463        C468   1.414       .  A
C463        C481   1.450       .  S
C464        C469   1.502       .  S
C464        C465   1.411       .  A
C465        C466   1.412       .  A
C465        C470   1.450       .  S
C466        C467   1.414       .  A
C466        C482   1.450       .  S
C467        C468   1.414       .  A
C468        C471   1.450       .  S
C469        C472   1.407       .  A
C469        C476   1.407       .  A
C470        N487   1.157       .  T
C471        N489   1.157       .  T
C472        C473   1.415       .  A
C472        C477   1.451       .  S
C473        C474   1.426       .  A
C473        C479   1.451   1_655  S
C474        C475   1.427       .  A
C475        C476   1.414       .  A
C475        C478   1.451       .  S
C476        C480   1.452       .  S
C477        N484   1.157       .  T
C478        N485   1.158   1_565  T
C479        N483   1.157       .  T
C480        N486   1.157       .  T
C481        N490   1.157       .  T
C482        N488   1.157       .  T
C491        C492   1.412       .  A
C491        C496   1.413       .  A
C491        C509   1.450       .  S
C492        C497   1.503       .  S
C492        C493   1.412       .  A
C493        C494   1.413       .  A
C493        C498   1.450       .  S
C494        C495   1.415       .  A
C494        C510   1.451       .  S
C495        C496   1.414       .  A
C496        C499   1.451       .  S
C497        C500   1.411       .  A
C497        C504   1.411       .  A
C498        N515   1.157       .  T
C499        N517   1.157       .  T
C500        C501   1.413       .  A
C500        C505   1.451       .  S
C501        C502   1.417       .  A
C501        C507   1.450       .  S
C502        C503   1.416       .  A
C503        C504   1.415       .  A
C503        C506   1.450       .  S
C504        C508   1.450       .  S
C505        N512   1.157       .  T
C506        N513   1.157       .  T
C507        N511   1.157       .  T
C508        N514   1.157       .  T
C509        N518   1.157       .  T
C510        N516   1.157       .  T
C519        C520   1.411       .  A
C519        C524   1.411       .  A
C519        C537   1.450       .  S
C520        C525   1.498       .  S
C520        C521   1.411       .  A
C521        C522   1.412       .  A
C521        C526   1.450       .  S
C522        C523   1.414       .  A
C522        C538   1.451       .  S
C523        C524   1.414       .  A
C524        C527   1.451   1_565  S
C525        C528   1.409       .  A
C525        C532   1.410       .  A
C526        N543   1.157       .  T
C527        N545   1.157       .  T
C528        C529   1.412       .  A
C528        C533   1.451       .  S
C529        C530   1.418       .  A
C529        C535   1.451       .  S
C530        C531   1.418       .  A
C531        C532   1.413       .  A
C531        C534   1.450       .  S
C532        C536   1.451       .  S
C533        N540   1.157       .  T
C534        N541   1.157       .  T
C535        N539   1.157       .  T
C536        N542   1.157       .  T
C537        N546   1.157       .  T
C538        N544   1.157       .  T
C547        C548   1.411       .  A
C547        C552   1.412   1_556  A
C547        C565   1.450       .  S
C548        C553   1.499       .  S
C548        C549   1.411       .  A
C549        C550   1.411       .  A
C549        C554   1.451       .  S
C550        C551   1.416       .  A
C550        C566   1.451       .  S
C551        C552   1.416   1_556  A
C552        C555   1.452       .  S
C553        C556   1.411       .  A
C553        C560   1.411       .  A
C554        N571   1.157       .  T
C555        N573   1.157       .  T
C556        C557   1.411       .  A
C556        C561   1.451       .  S
C557        C558   1.416       .  A
C557        C563   1.451       .  S
C558        C559   1.416       .  A
C559        C560   1.413       .  A
C559        C562   1.450       .  S
C560        C564   1.450       .  S
C561        N568   1.157       .  T
C562        N569   1.157       .  T
C563        N567   1.157       .  T
C564        N570   1.157       .  T
C565        N574   1.157       .  T
C566        N572   1.157       .  T
C575        C576   1.410       .  A
C575        C580   1.413       .  A
C575        C593   1.451       .  S
C576        C581   1.501       .  S
C576        C577   1.411       .  A
C577        C578   1.412       .  A
C577        C582   1.451       .  S
C578        C579   1.418       .  A
C578        C594   1.451       .  S
C579        C580   1.418       .  A
C580        C583   1.451       .  S
C581        C584   1.412       .  A
C581        C588   1.412       .  A
C582        N599   1.157       .  T
C583        N601   1.157       .  T
C584        C585   1.412       .  A
C584        C589   1.451       .  S
C585        C586   1.414       .  A
C585        C591   1.451   1_556  S
C586        C587   1.415   1_565  A
C587        C588   1.413   1_545  A
C587        C590   1.451       .  S
C588        C592   1.451       .  S
C589        N596   1.157       .  T
C590        N597   1.157       .  T
C591        N595   1.157       .  T
C592        N598   1.157       .  T
C593        N602   1.157       .  T
C594        N600   1.157       .  T
C603        C604   1.412       .  A
C603        C608   1.416       .  A
C603        C621   1.451       .  S
C604        C609   1.506       .  S
C604        C605   1.410       .  A
C605        C606   1.414       .  A
C605        C610   1.451       .  S
C606        C607   1.419       .  A
C606        C622   1.451       .  S
C607        C608   1.419       .  A
C608        C611   1.450       .  S
C609        C612   1.411       .  A
C609        C616   1.412       .  A
C610        N627   1.157       .  T
C611        N629   1.157       .  T
C612        C613   1.414       .  A
C612        C617   1.451       .  S
C613        C614   1.418       .  A
C613        C619   1.450       .  S
C614        C615   1.417       .  A
C615        C616   1.416       .  A
C615        C618   1.450       .  S
C616        C620   1.450       .  S
C617        N624   1.157       .  T
C618        N625   1.157       .  T
C619        N623   1.157       .  T
C620        N626   1.157       .  T
C621        N630   1.157       .  T
C622        N628   1.157       .  T
C631        C632   1.411       .  A
C631        C636   1.412       .  A
C631        C649   1.451       .  S
C632        C637   1.499       .  S
C632        C633   1.410       .  A
C633        C634   1.412       .  A
C633        C638   1.450       .  S
C634        C635   1.414       .  A
C634        C650   1.450       .  S
C635        C636   1.416       .  A
C636        C639   1.451       .  S
C637        C640   1.409       .  A
C637        C644   1.407       .  A
C638        N655   1.157       .  T
C639        N657   1.157       .  T
C640        C641   1.414       .  A
C640        C645   1.451       .  S
C641        C642   1.421       .  A
C641        C647   1.450   1_655  S
C642        C643   1.423       .  A
C643        C644   1.412       .  A
C643        C646   1.452       .  S
C644        C648   1.451       .  S
C645        N652   1.157       .  T
C646        N653   1.158       .  T
C647        N651   1.157       .  T
C648        N654   1.157       .  T
C649        N658   1.157       .  T
C650        N656   1.157       .  T
C659        C660   1.411       .  A
C659        C664   1.411       .  A
C659        C677   1.451       .  S
C660        C665   1.499       .  S
C660        C661   1.411       .  A
C661        C662   1.413       .  A
C661        C666   1.450       .  S
C662        C663   1.414       .  A
C662        C678   1.450       .  S
C663        C664   1.414       .  A
C664        C667   1.450       .  S
C665        C668   1.410       .  A
C665        C672   1.410       .  A
C666        N683   1.157       .  T
C667        N685   1.157       .  T
C668        C669   1.412       .  A
C668        C673   1.450       .  S
C669        C670   1.418       .  A
C669        C675   1.452   1_556  S
C670        C671   1.418       .  A
C671        C672   1.412       .  A
C671        C674   1.449       .  S
C672        C676   1.451       .  S
C673        N680   1.157       .  T
C674        N681   1.157       .  T
C675        N679   1.157       .  T
C676        N682   1.157       .  T
C677        N686   1.157       .  T
C678        N684   1.157       .  T
C687        C688   1.412       .  A
C687        C692   1.413       .  A
C687        C705   1.450       .  S
C688        C693   1.500       .  S
C688        C689   1.411       .  A
C689        C690   1.411       .  A
C689        C694   1.450       .  S
C690        C691   1.414       .  A
C690        C706   1.451       .  S
C691        C692   1.413       .  A
C692        C695   1.450       .  S
C693        C696   1.409       .  A
C693        C700   1.407       .  A
C694        N711   1.157       .  T
C695        N713   1.157       .  T
C696        C697   1.414       .  A
C696        C701   1.452       .  S
C697        C698   1.422       .  A
C697        C703   1.449   1_655  S
C698        C699   1.424       .  A
C699        C700   1.414       .  A
C699        C702   1.452   1_556  S
C700        C704   1.451       .  S
C701        N708   1.157       .  T
C702        N709   1.158       .  T
C703        N707   1.157       .  T
C704        N710   1.157       .  T
C705        N714   1.157       .  T
C706        N712   1.157       .  T
