geometry optimzed in LAMMPS
_audit_creation_date              2020-12-01 
_audit_creation_method            'lammps2cif' 
_symmetry_space_group_name_H-M    'P1' 
_symmetry_Int_Tables_number       1 
_symmetry_cell_setting            triclinic 
loop_ 
_symmetry_equiv_pos_as_xyz 
  x,y,z 
_cell_length_a                    130.97990512 
_cell_length_b                    131.44974885209913 
_cell_length_c                    41.627927981861056 
_cell_angle_alpha                 90.11310436369529 
_cell_angle_beta                  90.76984761916326 
_cell_angle_gamma                 158.7648146540145 
loop_ 
_atom_site_label 
_atom_site_type_symbol 
_atom_site_fract_x 
_atom_site_fract_y 
_atom_site_fract_z 
_atom_site_charge 
N1          N  0.00150645  0.14314563  0.18618415    -0.26300
N2          N  0.00002614  0.13377678  0.20599119    -0.34200
C3          C  0.00461641  0.12950047  0.18907629     0.02000
C4          C  0.00828272  0.13538597  0.15701208     0.08000
C5          C  0.00592463  0.14376160  0.15650789    -0.05100
H6          H  0.00619179  0.12356742  0.20010698     0.08700
H7          H  0.00684162  0.14954606  0.13585402     0.09900
Cu8        Cu  0.99548884  0.12979060  0.25818877     0.44200
Cu9        Cu  0.00132117  0.15935486  0.20068263     0.42000
Cu10       Cu  0.00381844  0.16366555  0.30493454     0.43900
N11         N  0.00109781  0.13697132  0.31037490    -0.33700
N12         N  0.00563779  0.14989558  0.32668006    -0.28000
C13         C  0.01146321  0.15301386  0.35780233    -0.04100
C14         C  0.00953554  0.14075348  0.36173577     0.08100
C15         C  0.00308348  0.13101972  0.33117303     0.01900
H16         H  0.01616772  0.16298148  0.37632050     0.09600
H17         H  0.99966331  0.11997181  0.32447491     0.08700
C18         C  0.00243369  0.10850242  0.47422320     0.04100
C19         C  0.01598790  0.12249341  0.50461220    -0.12100
C20         C  0.99492913  0.10140993  0.03572961     0.01600
C21         C  0.96772046  0.07178705  0.03322812    -0.10600
C22         C  0.96262266  0.06379319  0.49932394     0.04100
C23         C  0.97674543  0.07943001  0.47173508    -0.10000
H24         H  0.03634264  0.14509524  0.50583707     0.09700
H25         H  0.95578322  0.05958989  0.05446162     0.07200
H26         H  0.96581551  0.06858542  0.44845942     0.07000
N27         N  0.45172146  0.30864038  0.32371316    -0.26300
N28         N  0.42850184  0.28628436  0.30519519    -0.34200
C29         C  0.40608119  0.26522903  0.32394070     0.02000
C30         C  0.41564477  0.27485862  0.35580154     0.08000
C31         C  0.44471939  0.30249714  0.35465195    -0.05100
H32         H  0.38439099  0.24453280  0.31499864     0.08700
H33         H  0.45968788  0.31727703  0.37480287     0.09900
Cu34       Cu  0.42843173  0.28630997  0.25523559     0.44200
Cu35       Cu  0.49178997  0.34682187  0.30615669     0.42000
Cu36       Cu  0.49649308  0.35282131  0.21973669     0.43900
N37         N  0.43370639  0.29289356  0.20618131    -0.33700
N38         N  0.45851459  0.31707394  0.19326256    -0.28000
C39         C  0.45465205  0.31436567  0.16117786    -0.04100
C40         C  0.42604539  0.28726037  0.15360396     0.08100
C41         C  0.41338500  0.27422361  0.18264867     0.01900
H42         H  0.47141091  0.33089698  0.14460967     0.09600
H43         H  0.39106884  0.25266350  0.18635290     0.08700
N44         N  0.53114710  0.38559619  0.25171924    -0.35200
N45         N  0.52938733  0.38331900  0.28325761    -0.27400
C46         C  0.55537315  0.40827176  0.29717139    -0.02600
C47         C  0.57441646  0.42719060  0.27323664     0.06000
C48         C  0.55833047  0.41209818  0.24471770     0.04100
H49         H  0.56001929  0.41235181  0.32282704     0.09200
H50         H  0.56578244  0.41992011  0.22067981     0.08000
C51         C  0.35003274  0.21584429  0.47061167     0.04100
C52         C  0.37028387  0.23766870  0.00208163    -0.12100
C53         C  0.36227572  0.22678097  0.03231550     0.01600
C54         C  0.33520712  0.19761041  0.03570341    -0.10600
C55         C  0.31599231  0.17937546  0.00932673     0.04100
C56         C  0.32376895  0.18650806  0.47176427    -0.10000
H57         H  0.39110960  0.26019848  0.99938131     0.09700
H58         H  0.32871907  0.18917202  0.05916469     0.07200
H59         H  0.31540659  0.17453075  0.45108405     0.07000
N60         N  0.85848883  0.73517619  0.21156374    -0.26300
N61         N  0.86665022  0.75146568  0.22495763    -0.34200
C62         C  0.86826908  0.76004112  0.20167274     0.02000
C63         C  0.86060567  0.74840731  0.17246881     0.08000
C64         C  0.85467529  0.73291181  0.17971425    -0.05100
H65         H  0.87269797  0.77212927  0.20591994     0.08700
H66         H  0.84603530  0.71916947  0.16336082     0.09900
Cu67       Cu  0.87143868  0.75794210  0.27470960     0.44200
Cu68       Cu  0.84599663  0.71091840  0.23647278     0.42000
Cu69       Cu  0.84924821  0.71530405  0.32080171     0.43900
N70         N  0.87394765  0.75943433  0.32489709    -0.33700
N71         N  0.86734092  0.74502979  0.34102734    -0.28000
C72         C  0.86806193  0.74782808  0.37256882    -0.04100
C73         C  0.87514543  0.76451998  0.37678246     0.08100
C74         C  0.87879709  0.77159073  0.34604650     0.01900
H75         H  0.86064475  0.73584270  0.39076506     0.09600
H76         H  0.88198872  0.78240870  0.33938064     0.08700
N77         N  0.82249775  0.68053329  0.29599932    -0.35200
N78         N  0.82189096  0.67929197  0.26435450    -0.27400
C79         C  0.79855022  0.65256589  0.25427122    -0.02600
C80         C  0.78342330  0.63603548  0.28086238     0.06000
C81         C  0.79940647  0.65453944  0.30696147     0.04100
H82         H  0.79127434  0.64519584  0.22935635     0.09200
H83         H  0.79291062  0.64900209  0.33152111     0.08000
C84         C  0.83895224  0.74219229  0.02087787    -0.12100
H85         H  0.84775645  0.74276203  0.02166917     0.09700
N86         N  0.94314939  0.09894141  0.30918621    -0.26300
N87         N  0.91714408  0.07611631  0.29716644    -0.34200
C88         C  0.89868239  0.05796715  0.32060971     0.02000
C89         C  0.91371307  0.06995985  0.34897795     0.08000
C90         C  0.94161539  0.09592791  0.34088601    -0.05100
H91         H  0.87600987  0.03660186  0.31664178     0.08700
H92         H  0.95928205  0.11023859  0.35676330     0.09900
Cu93       Cu  0.90759249  0.06852813  0.24928753     0.44200
Cu94       Cu  0.97992777  0.13122963  0.28269097     0.42000
Cu95       Cu  0.97854033  0.12927595  0.22590164     0.43900
N96         N  0.91744176  0.07695610  0.20233010    -0.33700
N97         N  0.94360449  0.09985951  0.19365393    -0.28000
C98         C  0.94309430  0.09861316  0.16137774    -0.04100
C99         C  0.91538201  0.07324606  0.14950516     0.08100
C100        C  0.89967771  0.06016835  0.17626869     0.01900
H101        H  0.96098021  0.11347464  0.14751779     0.09600
H102        H  0.87692587  0.03888831  0.17714349     0.08700
N103        N  0.02339550  0.16976183  0.24014304    -0.35200
N104        N  0.02422790  0.17103106  0.27087897    -0.27400
C105        C  0.87494646  0.01734431  0.02828254     0.04100
C106        C  0.86579171  0.99865032  0.02869352    -0.12100
C107        C  0.86308509  0.99050027  0.00013219     0.01600
C108        C  0.86980068  0.00005395  0.46725770    -0.10600
C109        C  0.87765910  0.01767246  0.46686268     0.04100
C110        C  0.87864378  0.02546311  0.99830464    -0.10000
H111        H  0.86537805  0.99424157  0.05135588     0.09700
H112        H  0.86762613  0.99382674  0.44488916     0.07200
H113        H  0.88819394  0.04180946  0.99755327     0.07000
C114        C  0.87983583  0.97774655  0.99473574     0.04100
C115        C  0.91856813  0.01226638  0.49524298    -0.12100
C116        C  0.93179455  0.03401550  0.49684932     0.01600
C117        C  0.90719770  0.02175739  0.00208046    -0.10600
C118        C  0.87763526  0.99407698  0.99994238     0.04100
C119        C  0.86377805  0.97184446  0.99587032    -0.10000
H120        H  0.93114215  0.01705895  0.49520027     0.09700
H121        H  0.91797700  0.03903284  0.00366191     0.07200
H122        H  0.84095443  0.95035300  0.99378929     0.07000
N123        N  0.89508412  0.93617537  0.17942579    -0.26300
N124        N  0.87107691  0.91724353  0.19039878    -0.34200
C125        C  0.85664178  0.90871328  0.16665236     0.02000
C126        C  0.87261583  0.92357577  0.13946023     0.08000
C127        C  0.89697222  0.94090764  0.14873586    -0.05100
H128        H  0.83604731  0.89292006  0.16930816     0.08700
H129        H  0.91501052  0.95614290  0.13443850     0.09900
Cu130      Cu  0.86067230  0.90679782  0.23816577     0.44200
Cu131      Cu  0.92275569  0.95243105  0.20524668     0.42000
Cu132      Cu  0.90138578  0.92663633  0.28454578     0.43900
N133        N  0.86291005  0.90891661  0.28799157    -0.33700
N134        N  0.87797838  0.91615613  0.30471023    -0.28000
C135        C  0.87911862  0.91988923  0.33581135    -0.04100
C136        C  0.86404568  0.91477220  0.33893904     0.08100
C137        C  0.85389992  0.90774754  0.30821227     0.01900
H138        H  0.89144844  0.92744250  0.35446085     0.09600
H139        H  0.84251292  0.90396629  0.30085605     0.08700
N140        N  0.93215079  0.94728165  0.26208431    -0.35200
N141        N  0.94091970  0.95783073  0.23337558    -0.27400
C142        C  0.96239161  0.97160267  0.22638275    -0.02600
C143        C  0.96736537  0.96968612  0.25206050     0.06000
C144        C  0.94775175  0.95405676  0.27424005     0.04100
H145        H  0.97379540  0.98252431  0.20444277     0.09200
H146        H  0.94522523  0.94834985  0.29764723     0.08000
C147        C  0.85528240  0.92890142  0.01788445     0.04100
C148        C  0.86459663  0.94767936  0.01974063    -0.12100
C149        C  0.86623746  0.95513676  0.99211311     0.01600
C150        C  0.86957620  0.95184551  0.46155195    -0.10600
C151        C  0.86023383  0.93309509  0.45929632     0.04100
C152        C  0.84811976  0.91807142  0.98748974    -0.10000
H153        H  0.87180183  0.95755672  0.04269120     0.09700
H154        H  0.87404416  0.96018173  0.43992530     0.07200
H155        H  0.84153899  0.90408703  0.98541776     0.07000
N156        N  0.11957753  0.04450918  0.32700573    -0.26300
N157        N  0.13003226  0.04636279  0.31162330    -0.34200
C158        C  0.14037861  0.04923631  0.33342679     0.02000
C159        C  0.13625318  0.04929835  0.36379313     0.08000
C160        C  0.12310603  0.04633976  0.35882078    -0.05100
H161        H  0.15113599  0.05224552  0.32764165     0.08700
H162        H  0.11721723  0.04628125  0.37697275     0.09900
Cu163      Cu  0.13234089  0.04808719  0.26183334     0.44200
Cu164      Cu  0.10221762  0.04095504  0.30449297     0.42000
Cu165      Cu  0.11518074  0.05624007  0.22102786     0.43900
N166        N  0.13786693  0.05595597  0.21327245    -0.33700
N167        N  0.13285465  0.06014897  0.19898561    -0.28000
C168        C  0.14004949  0.06618407  0.16813786    -0.04100
C169        C  0.14989551  0.06561915  0.16276408     0.08100
C170        C  0.14818356  0.05901304  0.19175654     0.01900
H171        H  0.13802899  0.07042385  0.15084349     0.09600
H172        H  0.15438158  0.05700537  0.19695409     0.08700
N173        N  0.09099084  0.04376643  0.24689828    -0.35200
N174        N  0.08523729  0.03686864  0.27723506    -0.27400
C175        C  0.06556080  0.02526631  0.28594411    -0.02600
C176        C  0.05862944  0.02500845  0.25992337     0.06000
C177        C  0.07548747  0.03724933  0.23564042     0.04100
H178        H  0.05590346  0.01626347  0.30902648     0.09200
H179        H  0.07565700  0.04013207  0.21116227     0.08000
C180        C  0.19059486  0.08698741  0.04442636     0.04100
C181        C  0.20731628  0.09373409  0.04478847    -0.12100
C182        C  0.21771586  0.09962157  0.01611875     0.01600
C183        C  0.19631843  0.08074125  0.48517078    -0.10600
C184        C  0.17730560  0.07119249  0.48608351     0.04100
C185        C  0.18385778  0.08564746  0.01529151    -0.10000
H186        H  0.21288398  0.09520062  0.06741973     0.09700
H187        H  0.20248667  0.08349621  0.46218572     0.07200
H188        H  0.17072117  0.08019543  0.01502479     0.07000
C189        C  0.28641781  0.14929536  0.01390314     0.01600
C190        C  0.26637191  0.13846986  0.01243924    -0.10600
C191        C  0.23799969  0.11001716  0.01705726     0.04100
H192        H  0.27296520  0.15236143  0.00817586     0.07200
C193        C  0.18029147  0.08158782  0.07479461    -0.04400
C194        C  0.19656357  0.10393049  0.09246342    -0.01500
C195        C  0.18644812  0.09866072  0.12107006     0.03500
C196        C  0.16026229  0.07110205  0.13235262    -0.04400
C197        C  0.14392833  0.04874998  0.11448681    -0.01500
C198        C  0.15391283  0.05399175  0.08570010     0.03500
C199        C  0.22368755  0.13230369  0.08110307     0.38100
C200        C  0.11639522  0.02021812  0.12512426     0.38100
C201        C  0.13697846  0.03100910  0.06700031     0.36500
C202        C  0.20301816  0.12159953  0.13894125     0.36500
N203        N  0.12357554  0.01279419  0.05188321    -0.38300
N204        N  0.21618886  0.13989248  0.15309671    -0.38300
N205        N  0.09434120  0.99742565  0.13348932    -0.37700
N206        N  0.24532266  0.15490022  0.07197142    -0.37700
C207        C  0.16592125  0.06500652  0.45544222    -0.04400
C208        C  0.17774254  0.08496489  0.44328176    -0.01500
C209        C  0.16791572  0.07973085  0.41335085     0.03500
C210        C  0.14666719  0.05479210  0.39508051    -0.04400
C211        C  0.13519596  0.03505611  0.40697643    -0.01500
C212        C  0.14463438  0.04004670  0.43724441     0.03500
C213        C  0.20088107  0.11145245  0.46088148     0.38100
C214        C  0.11343818  0.00945356  0.38828596     0.38100
C215        C  0.13249210  0.01953333  0.44975134     0.36500
C216        C  0.18042395  0.10052198  0.40082159     0.36500
N217        N  0.12286081  0.00322554  0.45983154    -0.38300
N218        N  0.19041450  0.11710911  0.39080920    -0.38300
N219        N  0.09612109  0.98902634  0.37342756    -0.37700
N220        N  0.21955677  0.13277905  0.47454195    -0.37700
C221        C  0.98975085  0.98262394  0.25519624    -0.04400
C222        C  0.99267821  0.97815468  0.23043690    -0.01500
C223        C  0.01575095  0.99284380  0.23114208     0.03500
C224        C  0.03529834  0.01094794  0.25784071    -0.04400
C225        C  0.03158806  0.01445471  0.28339842    -0.01500
C226        C  0.00900627  0.00047063  0.28197037     0.03500
C227        C  0.97100273  0.95726716  0.20498020     0.38100
C228        C  0.05172949  0.03352719  0.31059839     0.38100
C229        C  0.00615828  0.00517915  0.30768872     0.36500
C230        C  0.01919508  0.98925939  0.20409702     0.36500
N231        N  0.00382985  0.00886520  0.32822669    -0.38300
N232        N  0.02237565  0.98700870  0.18209554    -0.38300
N233        N  0.06768008  0.04867676  0.33239174    -0.37700
N234        N  0.95320172  0.94022011  0.18522513    -0.37700
C235        C  0.86272855  0.91977680  0.36846541    -0.04400
C236        C  0.83655198  0.89737552  0.38219590    -0.01500
C237        C  0.83557140  0.90167643  0.41178051     0.03500
C238        C  0.86077468  0.92831664  0.42781883    -0.04400
C239        C  0.88697108  0.95088982  0.41374952    -0.01500
C240        C  0.88790892  0.94670047  0.38400649     0.03500
C241        C  0.81073057  0.86966620  0.36643589     0.38100
C242        C  0.91310267  0.97836526  0.43022852     0.38100
C243        C  0.91481234  0.97027944  0.36918038     0.36500
C244        C  0.80866660  0.87880527  0.42562404     0.36500
N245        N  0.93628375  0.98914310  0.35740284    -0.38300
N246        N  0.78720410  0.86059246  0.43668054    -0.38300
N247        N  0.93389128  0.00024554  0.44336664    -0.37700
N248        N  0.79020460  0.84757777  0.35379804    -0.37700
C249        C  0.86576379  0.92218375  0.10769864    -0.04400
C250        C  0.85094319  0.91779357  0.10604536    -0.01500
C251        C  0.84468634  0.91662932  0.07611087     0.03500
C252        C  0.85620236  0.92344713  0.04780052    -0.04400
C253        C  0.87119155  0.92804998  0.04932735    -0.01500
C254        C  0.87455791  0.92588774  0.07872143     0.03500
C255        C  0.84371754  0.91647501  0.13500990     0.38100
C256        C  0.88452827  0.93644588  0.02116917     0.38100
C257        C  0.88677545  0.92711156  0.07864752     0.36500
C258        C  0.82646121  0.90858966  0.07457102     0.36500
N259        N  0.89646823  0.92803496  0.07828887    -0.38300
N260        N  0.81194069  0.90217939  0.07332522    -0.38300
N261        N  0.89518649  0.94314154  0.99877691    -0.37700
N262        N  0.83804643  0.91564440  0.15790159    -0.37700
C263        C  0.90277794  0.05494670  0.37803286    -0.04400
C264        C  0.91128590  0.05286306  0.38587757    -0.01500
C265        C  0.90419244  0.04195066  0.41525762     0.03500
C266        C  0.88580815  0.03004771  0.43590481    -0.04400
C267        C  0.87559672  0.03031972  0.42668585    -0.01500
C268        C  0.88460598  0.04332042  0.39823034     0.03500
C269        C  0.92654646  0.06097321  0.36307299     0.38100
C270        C  0.85534347  0.01673935  0.44592401     0.38100
C271        C  0.91678903  0.04393644  0.42386222     0.36500
N272        N  0.92698409  0.04557803  0.42930707    -0.38300
N273        N  0.93831476  0.06698297  0.34485719    -0.37700
C274        C  0.90481917  0.05901614  0.11834882    -0.04400
C275        C  0.88588381  0.04677366  0.09744735    -0.01500
C276        C  0.87560444  0.03267888  0.06831394     0.03500
C277        C  0.88540521  0.03206154  0.05904733    -0.04400
C278        C  0.90510247  0.04525916  0.07990307    -0.01500
C279        C  0.91340453  0.05712175  0.10989626     0.03500
C280        C  0.91753111  0.04723008  0.07114796     0.38100
C281        C  0.92937978  0.06567696  0.13290293     0.36500
C282        C  0.85413905  0.01792066  0.04871218     0.36500
N283        N  0.94158152  0.07185204  0.15117460    -0.38300
N284        N  0.92799314  0.04922110  0.06614821    -0.37700
C285        C  0.75298805  0.60515106  0.28087840    -0.04400
C286        C  0.73287712  0.59266835  0.26412174    -0.01500
C287        C  0.70398604  0.56343067  0.26444376     0.03500
C288        C  0.69489026  0.54653995  0.28207982    -0.04400
C289        C  0.71476357  0.55896474  0.29950642    -0.01500
C290        C  0.74379108  0.58819055  0.29869898     0.03500
C291        C  0.74162616  0.60989467  0.24753447     0.38100
C292        C  0.68347161  0.55064008  0.24677051     0.36500
N293        N  0.66707218  0.54040743  0.23278387    -0.38300
N294        N  0.74852769  0.62357601  0.23433978    -0.37700
C295        C  0.86937432  0.76524649  0.40581495    -0.04400
C296        C  0.84140692  0.74000395  0.41602940    -0.01500
C297        C  0.83576683  0.73981235  0.44487187     0.03500
C298        C  0.85782399  0.76500479  0.46314506    -0.04400
C299        C  0.81824483  0.71419411  0.39654744     0.38100
C300        C  0.80724075  0.71349773  0.45619351     0.36500
N301        N  0.78457951  0.69255606  0.46544329    -0.38300
N302        N  0.79981018  0.69367557  0.38090113    -0.37700
C303        C  0.85383893  0.74725070  0.14135711    -0.04400
C304        C  0.87527556  0.77191920  0.12427445    -0.01500
C305        C  0.86870188  0.77049706  0.09440315     0.03500
C306        C  0.84087197  0.74432863  0.08108197    -0.04400
C307        C  0.81945491  0.71965847  0.09804111    -0.01500
C308        C  0.82581683  0.72113933  0.12828078     0.03500
C309        C  0.90423721  0.79858522  0.13685288     0.38100
C310        C  0.79086300  0.69270454  0.08424132     0.38100
C311        C  0.80332273  0.69583307  0.14629648     0.36500
N312        N  0.78541829  0.67570798  0.16076420    -0.38300
N313        N  0.76808176  0.67120336  0.07319638    -0.37700
N314        N  0.92740436  0.81984998  0.14670174    -0.37700
C315        C  0.36654689  0.23057697  0.44107672    -0.04400
C316        C  0.35940965  0.23019713  0.41444444    -0.01500
C317        C  0.37532552  0.24454807  0.38655759     0.03500
C318        C  0.39850218  0.25932405  0.38502026    -0.04400
C319        C  0.40539515  0.25939040  0.41168252    -0.01500
C320        C  0.38943216  0.24502431  0.43952562     0.03500
C321        C  0.33573895  0.21516396  0.41590160     0.38100
C322        C  0.42834071  0.27343835  0.41018284     0.38100
C323        C  0.39610937  0.24449481  0.46634614     0.36500
C324        C  0.36831951  0.24482392  0.35995028     0.36500
N325        N  0.40138022  0.24395932  0.48760343    -0.38300
N326        N  0.36267428  0.24498920  0.33873413    -0.38300
N327        N  0.44665587  0.28466212  0.40897175    -0.37700
N328        N  0.31680792  0.20310199  0.41709042    -0.37700
C329        C  0.41184224  0.27431594  0.12116426    -0.04400
C330        C  0.39250026  0.26418929  0.11296918    -0.01500
C331        C  0.37731348  0.24986178  0.08310086     0.03500
C332        C  0.38132280  0.24551314  0.06133525    -0.04400
C333        C  0.40149379  0.25665228  0.06892101    -0.01500
C334        C  0.41677045  0.27107241  0.09874753     0.03500
C335        C  0.38838103  0.26869964  0.13517996     0.38100
C336        C  0.40575647  0.25236218  0.04646079     0.38100
C337        C  0.43654453  0.28134725  0.10700754     0.36500
C338        C  0.35724669  0.23923062  0.07483636     0.36500
N339        N  0.45229896  0.28952609  0.11370315    -0.38300
N340        N  0.34125852  0.23076175  0.06814114    -0.38300
N341        N  0.40911472  0.24890206  0.02851211    -0.37700
N342        N  0.38515734  0.27236975  0.15286235    -0.37700
C343        C  0.66421138  0.51553870  0.28195952    -0.04400
C344        C  0.65312667  0.49753710  0.26150005    -0.01500
C345        C  0.62387047  0.46848246  0.25962541     0.03500
C346        C  0.60540210  0.45744671  0.27718041    -0.04400
C347        C  0.61664794  0.47553552  0.29800057    -0.01500
C348        C  0.64603433  0.50438572  0.30089729     0.03500
C349        C  0.67186181  0.50906532  0.24197632     0.38100
C350        C  0.59804800  0.46488553  0.31526581     0.38100
C351        C  0.65768629  0.52276971  0.32315920     0.36500
C352        C  0.61292266  0.44988295  0.24032956     0.36500
N353        N  0.66708519  0.53748075  0.34101506    -0.38300
N354        N  0.60422829  0.43503047  0.22514050    -0.38300
N355        N  0.58327878  0.45650795  0.32893765    -0.37700
N356        N  0.68686162  0.51834063  0.22639189    -0.37700
C357        C  0.00852496  0.12121360  0.44750785    -0.04400
C358        C  0.99523725  0.11850352  0.44672058    -0.01500
C359        C  0.99674702  0.12620416  0.41950038     0.03500
C360        C  0.01113483  0.13622021  0.39226749    -0.04400
C361        C  0.02536640  0.13992584  0.39368769    -0.01500
C362        C  0.02402043  0.13242833  0.42122658     0.03500
C363        C  0.97848510  0.10617204  0.47337403     0.38100
C364        C  0.04157875  0.15158233  0.36692223     0.38100
C365        C  0.03802029  0.13562716  0.42231465     0.36500
C366        C  0.98206073  0.12224617  0.41943314     0.36500
N367        N  0.04924324  0.13823319  0.42320843    -0.38300
N368        N  0.97032544  0.11905587  0.42026459    -0.38300
N369        N  0.05443122  0.16076428  0.34554093    -0.37700
N370        N  0.96504046  0.09629273  0.49444190    -0.37700
C371        C  0.00546033  0.11561775  0.06766360    -0.04400
C372        C  0.01750970  0.13671216  0.06992956    -0.01500
C373        C  0.02334286  0.14664758  0.10019719     0.03500
C374        C  0.01182379  0.13185542  0.12817376    -0.04400
C375        C  0.00178377  0.11234131  0.12655291    -0.01500
C376        C  0.00058392  0.10591969  0.09683096     0.03500
C377        C  0.02231795  0.14730681  0.04175460     0.38100
C378        C  0.99195094  0.09804398  0.15468297     0.38100
C379        C  0.99405789  0.08905998  0.09641495     0.36500
C380        C  0.04218761  0.17285520  0.10234304     0.36500
N381        N  0.98882397  0.07559787  0.09623068    -0.38300
N382        N  0.05743226  0.19388898  0.10391493    -0.38300
N383        N  0.98398041  0.08626463  0.17664083    -0.37700
N384        N  0.02645011  0.15621637  0.01974641    -0.37700
N385        N  0.99747301  0.13801078  0.68513999    -0.26300
N386        N  0.99785105  0.13025236  0.70466970    -0.34200
C387        C  0.00417261  0.12783787  0.68722568     0.02000
C388        C  0.00712871  0.13338627  0.65528587     0.08000
C389        C  0.00255787  0.13957801  0.65527827    -0.05100
H390        H  0.00732490  0.12331096  0.69759764     0.08700
H391        H  0.00253368  0.14460708  0.63483604     0.09900
Cu392      Cu  0.99365859  0.12627969  0.75714591     0.44200
Cu393      Cu  0.99383535  0.15087186  0.69972339     0.42000
Cu394      Cu  0.99669741  0.15540991  0.80358144     0.43900
N395        N  0.99847608  0.13288769  0.80956135    -0.33700
N396        N  0.00176457  0.14478814  0.82541016    -0.28000
C397        C  0.00737376  0.14800475  0.85672717    -0.04100
C398        C  0.00601470  0.13631105  0.86160398     0.08100
C399        C  0.00055737  0.12720031  0.83110172     0.01900
H400        H  0.01115326  0.15733254  0.87478225     0.09600
H401        H  0.99759638  0.11651035  0.82500546     0.08700
C402        C  0.99465390  0.10168388  0.97699504     0.04100
C403        C  0.00899123  0.11619156  0.00697806    -0.12100
C404        C  0.00163559  0.10705443  0.53292992     0.01600
C405        C  0.97515768  0.07760212  0.52953363    -0.10600
C406        C  0.95411761  0.05729068  0.00330423     0.04100
C407        C  0.96804882  0.07239973  0.97530487    -0.10000
H408        H  0.02993517  0.13889351  0.00761832     0.09700
H409        H  0.96249181  0.06472161  0.55023638     0.07200
H410        H  0.95670094  0.06128628  0.95226484     0.07000
N411        N  0.40635415  0.29132115  0.81310006    -0.26300
N412        N  0.38124075  0.26657259  0.79876648    -0.34200
C413        C  0.36378668  0.24658180  0.82061373     0.02000
C414        C  0.37904050  0.25971556  0.84962695     0.08000
C415        C  0.40578426  0.28791558  0.84390120    -0.05100
H416        H  0.34194212  0.22425552  0.81563924     0.08700
H417        H  0.42366578  0.30481732  0.86089510     0.09900
Cu418      Cu  0.37362333  0.26229302  0.74959479     0.44200
Cu419      Cu  0.44121806  0.32930255  0.79168297     0.42000
Cu420      Cu  0.43420119  0.33074199  0.71189267     0.43900
N421        N  0.37657931  0.26764665  0.70016114    -0.33700
N422        N  0.39815364  0.29237286  0.68745210    -0.28000
C423        C  0.39592404  0.28953142  0.65534053    -0.04100
C424        C  0.37189875  0.26179377  0.64712667     0.08100
C425        C  0.36000267  0.24836644  0.67602427     0.01900
H426        H  0.41205805  0.30688038  0.63932216     0.09600
H427        H  0.34208276  0.22680136  0.67932866     0.08700
N428        N  0.47242456  0.36651803  0.73703384    -0.35200
N429        N  0.47489956  0.36576216  0.76716288    -0.27400
C430        C  0.50227117  0.39090656  0.77650914    -0.02600
C431        C  0.51780253  0.40829156  0.75083367     0.06000
C432        C  0.49825780  0.39219912  0.72609754     0.04100
H433        H  0.51034145  0.39560983  0.79953839     0.09200
H434        H  0.50253120  0.39817536  0.70158473     0.08000
C435        C  0.35097190  0.21928097  0.97553125     0.04100
C436        C  0.36015505  0.23105328  0.49715556    -0.12100
C437        C  0.34422264  0.21700281  0.52479189     0.01600
C438        C  0.31863001  0.18807730  0.52579308    -0.10600
C439        C  0.30802967  0.17269757  0.49940745     0.04100
C440        C  0.32392286  0.19024260  0.97935601    -0.10000
H441        H  0.38013673  0.25356756  0.49619096     0.09700
H442        H  0.30640088  0.17722152  0.54719801     0.07200
H443        H  0.30879399  0.17607204  0.95908466     0.07000
N444        N  0.82970826  0.70815651  0.70144359    -0.26300
N445        N  0.84392814  0.72827746  0.71867351    -0.34200
C446        C  0.85296767  0.74394487  0.69877204     0.02000
C447        C  0.84378788  0.73298490  0.66768126     0.08000
C448        C  0.82928942  0.71045985  0.67033230    -0.05100
H449        H  0.86353882  0.76068295  0.70660803     0.08700
H450        H  0.81739878  0.69548710  0.65133810     0.09900
Cu451      Cu  0.84654075  0.73082302  0.76882110     0.44200
Cu452      Cu  0.80544370  0.67418117  0.72039837     0.42000
Cu453      Cu  0.80527284  0.67279624  0.80516598     0.43900
N454        N  0.84337794  0.72615644  0.81834556    -0.33700
N455        N  0.82967479  0.70578372  0.83114517    -0.28000
C456        C  0.82848703  0.70615085  0.86293441    -0.04100
C457        C  0.84156804  0.72741247  0.87073015     0.08100
C458        C  0.85104685  0.73990108  0.84190055     0.01900
H459        H  0.81649957  0.69030404  0.87869307     0.09600
H460        H  0.86060589  0.75611916  0.83795230     0.08700
N461        N  0.77254753  0.63684150  0.77614853    -0.35200
N462        N  0.77301623  0.63737592  0.74447862    -0.27400
C463        C  0.74673208  0.61141439  0.73219484    -0.02600
C464        C  0.72864087  0.59384395  0.75736691     0.06000
C465        C  0.74588419  0.61065439  0.78488887     0.04100
H466        H  0.74066883  0.60663313  0.70699668     0.09200
H467        H  0.73904349  0.60523793  0.80918842     0.08000
C468        C  0.85345081  0.76129722  0.52276656    -0.12100
H469        H  0.86213910  0.76174343  0.52393979     0.09700
N470        N  0.93903974  0.09307980  0.80809080    -0.26300
N471        N  0.91285642  0.06979810  0.79641088    -0.34200
C472        C  0.89482388  0.05272486  0.82041611     0.02000
C473        C  0.91029539  0.06586456  0.84883752     0.08000
C474        C  0.93808098  0.09139743  0.84020590    -0.05100
H475        H  0.87210674  0.03129900  0.81703547     0.08700
H476        H  0.95577301  0.10617855  0.85602288     0.09900
Cu477      Cu  0.90221607  0.06017578  0.74884528     0.44200
Cu478      Cu  0.97550739  0.12491300  0.78110742     0.42000
Cu479      Cu  0.97401871  0.12297849  0.72586657     0.43900
N480        N  0.91246969  0.06940626  0.70225059    -0.33700
N481        N  0.93889810  0.09323182  0.69379761    -0.28000
C482        C  0.93874519  0.09273072  0.66152519    -0.04100
C483        C  0.91112769  0.06687369  0.64939759     0.08100
C484        C  0.89496860  0.05273765  0.67602600     0.01900
H485        H  0.95710265  0.10861728  0.64764259     0.09600
H486        H  0.87227028  0.03097991  0.67663582     0.08700
N487        N  0.01912873  0.16471997  0.73893302    -0.35200
N488        N  0.02007605  0.16605634  0.76970292    -0.27400
C489        C  0.87868405  0.01867205  0.52570836     0.04100
C490        C  0.87220145  0.00221772  0.52512988    -0.12100
C491        C  0.87092766  0.99566056  0.49608731     0.01600
C492        C  0.86189907  0.99461686  0.97092308    -0.10600
C493        C  0.87217127  0.01417206  0.96934022     0.04100
C494        C  0.88202541  0.02688305  0.49642461    -0.10000
H495        H  0.87261098  0.99836327  0.54746797     0.09700
H496        H  0.85820167  0.98685605  0.94897291     0.07200
H497        H  0.88967561  0.04175363  0.49677560     0.07000
C498        C  0.88895001  0.98420809  0.49364385     0.04100
C499        C  0.90945400  0.00562243  0.99756673    -0.12100
C500        C  0.92314913  0.02766799  0.00128760     0.01600
C501        C  0.91543880  0.02763295  0.49697370    -0.10600
C502        C  0.88595365  0.99981267  0.49578332     0.04100
C503        C  0.87250812  0.97785788  0.49392128    -0.10000
H504        H  0.92172074  0.01006622  0.99683748     0.09700
H505        H  0.92581587  0.04461400  0.49780537     0.07200
H506        H  0.84968385  0.95621777  0.49272918     0.07000
N507        N  0.89509446  0.93680506  0.68319311    -0.26300
N508        N  0.87100927  0.91781538  0.69392352    -0.34200
C509        C  0.85643761  0.90889747  0.66961768     0.02000
C510        C  0.87234499  0.92330195  0.64234511     0.08000
C511        C  0.89677669  0.94090885  0.65215355    -0.05100
H512        H  0.83590243  0.89326699  0.67181524     0.08700
H513        H  0.91479574  0.95601137  0.63792521     0.09900
Cu514      Cu  0.86094783  0.90750582  0.74193725     0.44200
Cu515      Cu  0.92441845  0.95564965  0.70995863     0.42000
Cu516      Cu  0.91004594  0.93745562  0.79126981     0.43900
N517        N  0.86222519  0.90836622  0.79191074    -0.33700
N518        N  0.87957963  0.91862361  0.80937600    -0.28000
C519        C  0.87828773  0.92006881  0.84041783    -0.04100
C520        C  0.85964063  0.91076672  0.84274022     0.08100
C521        C  0.84964660  0.90328539  0.81155151     0.01900
H522        H  0.89196510  0.92973784  0.85952994     0.09600
H523        H  0.83630453  0.89713232  0.80342993     0.08700
N524        N  0.94336574  0.96161972  0.76873386    -0.35200
N525        N  0.94865799  0.96839440  0.73843897    -0.27400
C526        C  0.97052617  0.98295193  0.72987048    -0.02600
C527        C  0.97968727  0.98571717  0.75615133     0.06000
C528        C  0.96200423  0.97202545  0.78046860     0.04100
H529        H  0.97849611  0.99010306  0.70591175     0.09200
H530        H  0.96231499  0.96937244  0.80473395     0.08000
C531        C  0.86133609  0.93295418  0.51789261     0.04100
C532        C  0.87235331  0.95311478  0.51946089    -0.12100
C533        C  0.87552500  0.96174898  0.49157659     0.01600
C534        C  0.86009195  0.94510515  0.96192906    -0.10600
C535        C  0.85201330  0.92735679  0.95946461     0.04100
C536        C  0.85461486  0.92245444  0.48739882    -0.10000
H537        H  0.87921358  0.96274661  0.54241911     0.09700
H538        H  0.86378765  0.95286850  0.94037083     0.07200
H539        H  0.84655296  0.90727779  0.48536500     0.07000
N540        N  0.14364065  0.07403395  0.82775990    -0.26300
N541        N  0.15304003  0.07454733  0.81329960    -0.34200
C542        C  0.16421229  0.07852901  0.83550666     0.02000
C543        C  0.16190301  0.08079272  0.86542319     0.08000
C544        C  0.14881845  0.07791713  0.85969690    -0.05100
H545        H  0.17294442  0.07924239  0.83030621     0.08700
H546        H  0.14256622  0.07758532  0.87747989     0.09900
Cu547      Cu  0.14985516  0.06926638  0.76416254     0.44200
Cu548      Cu  0.12170927  0.06514348  0.80311318     0.42000
Cu549      Cu  0.11006169  0.05065331  0.71651199     0.43900
N550        N  0.14688757  0.06621822  0.71449402    -0.33700
N551        N  0.13263531  0.05976248  0.69690554    -0.28000
C552        C  0.13583396  0.06065010  0.66561104    -0.04100
C553        C  0.15280473  0.06790515  0.66358343     0.08100
C554        C  0.15937370  0.07119897  0.69494449     0.01900
H555        H  0.12640734  0.05620988  0.64583330     0.09600
H556        H  0.17242295  0.07699018  0.70296498     0.08700
N557        N  0.09166315  0.04513110  0.74245066    -0.35200
N558        N  0.09621938  0.05075968  0.77374301    -0.27400
C559        C  0.08053806  0.04409080  0.78321011    -0.02600
C560        C  0.06560088  0.03399439  0.75662944     0.06000
C561        C  0.07303845  0.03483221  0.73120717     0.04100
H562        H  0.07947427  0.04572230  0.80778169     0.09200
H563        H  0.06488630  0.02770285  0.70658174     0.08000
C564        C  0.18186150  0.07544773  0.54455224     0.04100
C565        C  0.20067224  0.08469677  0.54339756    -0.12100
C566        C  0.20805854  0.08754846  0.51367794     0.01600
C567        C  0.21102525  0.09837432  0.98698575    -0.10600
C568        C  0.19390574  0.09117288  0.98648810     0.04100
C569        C  0.17016742  0.06866743  0.51579222    -0.10000
H570        H  0.21034130  0.09068175  0.56546125     0.09700
H571        H  0.21925710  0.10316689  0.96479849     0.07200
H572        H  0.15584006  0.06177095  0.51652487     0.07000
C573        C  0.27917881  0.14200397  0.50100653     0.01600
C574        C  0.25727320  0.12872836  0.50325116    -0.10600
C575        C  0.23050863  0.10077034  0.51190436     0.04100
H576        H  0.26138593  0.14056710  0.49944822     0.07200
C577        C  0.17550253  0.07426232  0.57587429    -0.04400
C578        C  0.18749239  0.09489616  0.58462577    -0.01500
C579        C  0.18052254  0.09315349  0.61366742     0.03500
C580        C  0.16137449  0.07066137  0.63397296    -0.04400
C581        C  0.15020321  0.05062413  0.62585145    -0.01500
C582        C  0.15738910  0.05251268  0.59695708     0.03500
C583        C  0.20759714  0.11835502  0.56414605     0.38100
C584        C  0.13066392  0.02760924  0.64685677     0.38100
C585        C  0.14589875  0.03190231  0.58875230     0.36500
C586        C  0.19373272  0.11498292  0.62316070     0.36500
N587        N  0.13683367  0.01552660  0.58233925    -0.38300
N588        N  0.20447598  0.13254155  0.63082221    -0.38300
N589        N  0.11501265  0.00928225  0.66373688    -0.37700
N590        N  0.22379849  0.13723349  0.54804349    -0.37700
C591        C  0.18581565  0.08867858  0.95558780    -0.04400
C592        C  0.19839473  0.10965633  0.94711081    -0.01500
C593        C  0.19032338  0.10694945  0.91781540     0.03500
C594        C  0.16960350  0.08321598  0.89692884    -0.04400
C595        C  0.15672732  0.06203818  0.90576760    -0.01500
C596        C  0.16493428  0.06485438  0.93490379     0.03500
C597        C  0.21998868  0.13423615  0.96833025     0.38100
C598        C  0.13428516  0.03681400  0.88543428     0.38100
C599        C  0.15154913  0.04298259  0.94394493     0.36500
C600        C  0.20389272  0.12894833  0.90878666     0.36500
N601        N  0.14094784  0.02560694  0.95125669    -0.38300
N602        N  0.21475083  0.14652622  0.90159122    -0.38300
N603        N  0.11627624  0.01659599  0.86936542    -0.37700
N604        N  0.23720726  0.15381149  0.98532345    -0.37700
C605        C  0.00199897  0.99842566  0.75687102    -0.04400
C606        C  0.99667017  0.98376495  0.77002599    -0.01500
C607        C  0.01759356  0.99557534  0.77006727     0.03500
C608        C  0.04372456  0.02173159  0.75631548    -0.04400
C609        C  0.04898761  0.03619649  0.74263487    -0.01500
C610        C  0.02844281  0.02487785  0.74340639     0.03500
C611        C  0.96930440  0.95598477  0.78240368     0.38100
C612        C  0.07575077  0.06295414  0.72811048     0.38100
C613        C  0.03507775  0.04107468  0.73137728     0.36500
C614        C  0.01201854  0.98046939  0.78354986     0.36500
N615        N  0.04050613  0.05411799  0.72186247    -0.38300
N616        N  0.00784689  0.96865305  0.79428105    -0.38300
N617        N  0.09705490  0.08423703  0.71640703    -0.37700
N618        N  0.94748049  0.93382357  0.79228431    -0.37700
C619        C  0.85704366  0.91512086  0.87106983    -0.04400
C620        C  0.83046912  0.89229493  0.88402213    -0.01500
C621        C  0.82860180  0.89626304  0.91265958     0.03500
C622        C  0.85321576  0.92313256  0.92809711    -0.04400
C623        C  0.87966435  0.94617810  0.91442264    -0.01500
C624        C  0.88153379  0.94224551  0.88589548     0.03500
C625        C  0.80513206  0.86461115  0.86833872     0.38100
C626        C  0.90521730  0.97389491  0.93029970     0.38100
C627        C  0.90871676  0.96636667  0.87148618     0.36500
C628        C  0.80143405  0.87273142  0.92643225     0.36500
N629        N  0.93037991  0.98560889  0.85999239    -0.38300
N630        N  0.77980717  0.85400702  0.93756256    -0.38300
N631        N  0.92556413  0.99597137  0.94294400    -0.37700
N632        N  0.78487364  0.84252577  0.85576097    -0.37700
C633        C  0.86584713  0.92173940  0.60985443    -0.04400
C634        C  0.85317858  0.91968550  0.60660325    -0.01500
C635        C  0.84836470  0.91954405  0.57589395     0.03500
C636        C  0.85956889  0.92533385  0.54841422    -0.04400
C637        C  0.87195732  0.92705912  0.55157520    -0.01500
C638        C  0.87367799  0.92378418  0.58178747     0.03500
C639        C  0.84723537  0.92019748  0.63474809     0.38100
C640        C  0.88444380  0.93372080  0.52437661     0.38100
C641        C  0.88357941  0.92253721  0.58372135     0.36500
C642        C  0.83199137  0.91364624  0.57271774     0.36500
N643        N  0.89144341  0.92151140  0.58512347    -0.38300
N644        N  0.81890458  0.90889882  0.57017580    -0.38300
N645        N  0.89440462  0.93897830  0.50279441    -0.37700
N646        N  0.84284797  0.92106027  0.65704268    -0.37700
C647        C  0.89957466  0.05179851  0.87902679    -0.04400
C648        C  0.90644862  0.04814127  0.88801757    -0.01500
C649        C  0.89816416  0.03659360  0.91759711     0.03500
C650        C  0.88092275  0.02646571  0.93772695    -0.04400
C651        C  0.87258005  0.02858877  0.92748120    -0.01500
C652        C  0.88238121  0.04174588  0.89855477     0.03500
C653        C  0.92128806  0.05534488  0.86620913     0.38100
C654        C  0.85308007  0.01636097  0.94589892     0.38100
C655        C  0.90785861  0.03551269  0.92662171     0.36500
N656        N  0.91547619  0.03440884  0.93224739    -0.38300
N657        N  0.93282987  0.06077063  0.84882232    -0.37700
C658        C  0.90182544  0.05375935  0.61794991    -0.04400
C659        C  0.88114376  0.03926353  0.59763372    -0.01500
C660        C  0.87300860  0.02720867  0.56769998     0.03500
C661        C  0.88691155  0.03127922  0.55706158    -0.04400
C662        C  0.90808740  0.04648702  0.57740311    -0.01500
C663        C  0.91372522  0.05551902  0.60843875     0.03500
C664        C  0.92503140  0.05385158  0.56665005     0.38100
C665        C  0.92970272  0.06412552  0.63152231     0.36500
C666        C  0.84963399  0.00972901  0.54860691     0.36500
N667        N  0.94159827  0.07005049  0.65013623    -0.38300
N668        N  0.93932913  0.06049546  0.55930741    -0.37700
C669        C  0.69761897  0.56673650  0.75566216    -0.04400
C670        C  0.68597537  0.56419982  0.73775622    -0.01500
C671        C  0.65663230  0.53857186  0.73620633     0.03500
C672        C  0.63878892  0.51555315  0.75303832    -0.04400
C673        C  0.65025834  0.51818259  0.77181379    -0.01500
C674        C  0.67962124  0.54373050  0.77321137     0.03500
C675        C  0.70409894  0.58826875  0.72231923     0.38100
C676        C  0.64469538  0.53589044  0.71761003     0.36500
N677        N  0.63513241  0.53371253  0.70283663    -0.38300
N678        N  0.71849030  0.60744296  0.71007488    -0.37700
C679        C  0.83934120  0.73101277  0.90147705    -0.04400
C680        C  0.81257480  0.70770674  0.91452829    -0.01500
C681        C  0.81037947  0.71075148  0.94410957     0.03500
C682        C  0.83476193  0.73715352  0.96065771    -0.04400
C683        C  0.78702998  0.68065458  0.89715406     0.38100
C684        C  0.78292695  0.68657889  0.95772342     0.36500
N685        N  0.76108800  0.66735965  0.96865002    -0.38300
N686        N  0.76663000  0.65905331  0.88337688    -0.37700
C687        C  0.84392207  0.73974482  0.63880707    -0.04400
C688        C  0.86961331  0.76683832  0.62620574    -0.01500
C689        C  0.86947331  0.77245841  0.59754074     0.03500
C690        C  0.84363724  0.75097168  0.58129045    -0.04400
C691        C  0.81798337  0.72402949  0.59418225    -0.01500
C692        C  0.81810360  0.71863234  0.62316313     0.03500
C693        C  0.89620374  0.78877090  0.64234841     0.38100
C694        C  0.79139901  0.70146061  0.57693360     0.38100
C695        C  0.79152647  0.69155582  0.63745688     0.36500
N696        N  0.77034930  0.67005797  0.64900476    -0.38300
N697        N  0.77027105  0.68348651  0.56300224    -0.37700
N698        N  0.91742012  0.80628733  0.65525905    -0.37700
C699        C  0.35841245  0.22996099  0.94342215    -0.04400
C700        C  0.34639692  0.22791716  0.93118586    -0.01500
C701        C  0.35209838  0.23646972  0.89984209     0.03500
C702        C  0.36994555  0.24723129  0.88070579    -0.04400
C703        C  0.38175910  0.24905070  0.89288290    -0.01500
C704        C  0.37585368  0.24026506  0.92407789     0.03500
C705        C  0.32860882  0.21751757  0.95114007     0.38100
C706        C  0.39987576  0.25980796  0.87317438     0.38100
C707        C  0.38726160  0.24129236  0.93610844     0.36500
C708        C  0.34046607  0.23518610  0.88772028     0.36500
N709        N  0.39624565  0.24199537  0.94576400    -0.38300
N710        N  0.33124985  0.23423133  0.87804654    -0.38300
N711        N  0.41434437  0.26841053  0.85746061    -0.37700
N712        N  0.31445972  0.20925219  0.96711518    -0.37700
C713        C  0.36532384  0.25110408  0.61519968    -0.04400
C714        C  0.34212823  0.23306929  0.59611643    -0.01500
C715        C  0.33630621  0.22339909  0.56544750     0.03500
C716        C  0.35368683  0.23170100  0.55374977    -0.04400
C717        C  0.37735907  0.25039317  0.57258113    -0.01500
C718        C  0.38302972  0.25988839  0.60330636     0.03500
C719        C  0.32415967  0.22433413  0.60816856     0.38100
C720        C  0.39507274  0.25872870  0.56109417     0.38100
C721        C  0.40632665  0.27762446  0.62336940     0.36500
C722        C  0.31205368  0.20442602  0.54616540     0.36500
N723        N  0.42478382  0.29160666  0.63945333    -0.38300
N724        N  0.29258653  0.18912492  0.53093521    -0.38300
N725        N  0.40924214  0.26543159  0.55190688    -0.37700
N726        N  0.30981475  0.21734598  0.61781301    -0.37700
C727        C  0.60776435  0.48848641  0.75126264    -0.04400
C728        C  0.59075566  0.46765571  0.72764244    -0.01500
C729        C  0.56126102  0.44150309  0.72693071     0.03500
C730        C  0.54881777  0.43647314  0.74935196    -0.04400
C731        C  0.56603761  0.45782582  0.77211488    -0.01500
C732        C  0.59544148  0.48367604  0.77330112     0.03500
C733        C  0.60368690  0.47311495  0.70435081     0.38100
C734        C  0.55350370  0.45330670  0.79404988     0.38100
C735        C  0.61305521  0.50525152  0.79742725     0.36500
C736        C  0.54375672  0.41938354  0.70425081     0.36500
N737        N  0.62711522  0.52244559  0.81672872    -0.38300
N738        N  0.52982726  0.40172378  0.68625482    -0.38300
N739        N  0.54344592  0.44967226  0.81140629    -0.37700
N740        N  0.61406753  0.47756903  0.68571797    -0.37700
C741        C  0.00181833  0.11497319  0.94965450    -0.04400
C742        C  0.98931477  0.11309723  0.94733441    -0.01500
C743        C  0.99195360  0.12148169  0.91947820     0.03500
C744        C  0.00653058  0.13115350  0.89296060    -0.04400
C745        C  0.02014989  0.13419793  0.89610991    -0.01500
C746        C  0.01788631  0.12626885  0.92444971     0.03500
C747        C  0.97245308  0.10120005  0.97323676     0.38100
C748        C  0.03675157  0.14568873  0.87039852     0.38100
C749        C  0.03162627  0.12921008  0.92758030     0.36500
C750        C  0.97842910  0.11881811  0.91831745     0.36500
N751        N  0.04266598  0.13164208  0.93025942    -0.38300
N752        N  0.96768878  0.11674768  0.91853624    -0.38300
N753        N  0.04993190  0.15472265  0.84991300    -0.37700
N754        N  0.95895774  0.09169228  0.99371853    -0.37700
C755        C  0.01058005  0.11984792  0.56537033    -0.04400
C756        C  0.02126774  0.13986612  0.56858503    -0.01500
C757        C  0.02474159  0.14764271  0.59921552     0.03500
C758        C  0.01223736  0.13164218  0.62618649    -0.04400
C759        C  0.00277999  0.11263981  0.62348372    -0.01500
C760        C  0.00455423  0.10897265  0.59403167     0.03500
C761        C  0.02694886  0.15140698  0.54096089     0.38100
C762        C  0.98936286  0.09517023  0.64979690     0.38100
C763        C  0.99951110  0.09338881  0.59328988     0.36500
C764        C  0.04163714  0.17251873  0.60270820     0.36500
N765        N  0.99538641  0.08087955  0.59275628    -0.38300
N766        N  0.05528063  0.19246855  0.60534441    -0.38300
N767        N  0.97824607  0.08072725  0.67031104    -0.37700
N768        N  0.03170960  0.16104326  0.51947733    -0.37700
N769        N  0.49851208  0.68866611  0.26715545    -0.35200
N770        N  0.49788599  0.68843986  0.23484056    -0.27400
C771        C  0.52278970  0.71557089  0.22709272    -0.02600
C772        C  0.54187548  0.73089581  0.25223499     0.06000
C773        C  0.52373135  0.71591339  0.27697813     0.04100
H774        H  0.52897769  0.72113182  0.20236664     0.09200
H775        H  0.53086416  0.72180802  0.30191091     0.08000
C776        C  0.22139057  0.05213079  0.05654939     0.04100
C777        C  0.21990361  0.04773810  0.49119518     0.01600
C778        C  0.23193171  0.06858243  0.48954624    -0.10600
C779        C  0.23980963  0.08316158  0.02533897     0.04100
C780        C  0.23389928  0.07340320  0.05510018    -0.10000
H781        H  0.23327443  0.07355618  0.46643258     0.07200
H782        H  0.23792716  0.08148635  0.07697890     0.07000
C783        C  0.54337884  0.71480879  0.27626291    -0.02800
C784        C  0.55191502  0.72910257  0.25121264     0.06000
C785        C  0.54244022  0.71449981  0.22433061     0.04100
H786        H  0.54481082  0.71832984  0.30134231     0.09200
H787        H  0.54284626  0.71761932  0.19987119     0.08000
C788        C  0.24941150  0.10267374  0.02323997     0.04100
C789        C  0.27799116  0.13141359  0.01922117    -0.12100
C790        C  0.22948332  0.09208069  0.02268426    -0.10000
H791        H  0.29342477  0.13966488  0.01952724     0.09700
H792        H  0.20737916  0.06987471  0.02571374     0.07000
C793        C  0.35059834  0.53375595  0.34211400     0.36500
N794        N  0.33868907  0.52522070  0.31862826    -0.38300
N795        N  0.29483175  0.47810759  0.39576893    -0.37700
C796        C  0.37067933  0.56408941  0.11264725     0.38100
N797        N  0.33278986  0.52616704  0.03674943    -0.38300
N798        N  0.36248522  0.56407639  0.12280360    -0.37700
C799        C  0.99123644  0.85989429  0.28512833     0.38100
C800        C  0.99691650  0.84346937  0.28727561     0.36500
N801        N  0.98111082  0.82398001  0.30126888    -0.38300
N802        N  0.97353562  0.84745345  0.29869839    -0.37700
C803        C  0.22073030  0.03481700  0.44904128    -0.01500
C804        C  0.21035315  0.02089024  0.41979721     0.03500
C805        C  0.24493289  0.05278096  0.46598125     0.38100
C806        C  0.22337063  0.02389074  0.40732469     0.36500
N807        N  0.23384836  0.02639134  0.39734012    -0.38300
N808        N  0.26435604  0.06721237  0.47927526    -0.37700
C809        C  0.25301759  0.06607128  0.09198827     0.36500
N810        N  0.27433605  0.08307886  0.08270711    -0.38300
N811        N  0.48019814  0.67178835  0.74508136    -0.35200
N812        N  0.47699266  0.66778285  0.71298882    -0.27400
C813        C  0.50274806  0.69322429  0.70153706    -0.02600
C814        C  0.52207031  0.70839589  0.72605290     0.06000
C815        C  0.50768800  0.69938059  0.75110318     0.04100
H816        H  0.50649701  0.69493341  0.67667581     0.09200
H817        H  0.51632627  0.70718068  0.77557888     0.08000
C818        C  0.22634791  0.05411380  0.54970062     0.04100
C819        C  0.22084527  0.05050395  0.99807411     0.01600
C820        C  0.23353304  0.07189442  0.99698558    -0.10600
C821        C  0.24032982  0.08158946  0.51753285     0.04100
C822        C  0.23820412  0.07491630  0.54753641    -0.10000
H823        H  0.23718288  0.07875628  0.97392049     0.07200
H824        H  0.24466839  0.08504464  0.56917516     0.07000
C825        C  0.51578727  0.68658867  0.75776420    -0.02800
C826        C  0.52547213  0.69995770  0.72936381     0.06000
C827        C  0.51048608  0.68004837  0.70628339     0.04100
H828        H  0.52086335  0.69434711  0.78147202     0.09200
H829        H  0.51047718  0.68153146  0.68073312     0.08000
C830        C  0.24707073  0.09869415  0.51499002     0.04100
C831        C  0.27398818  0.12684612  0.50638600    -0.12100
C832        C  0.22541837  0.08576593  0.51803754    -0.10000
H833        H  0.29088755  0.13704066  0.50476639     0.09700
H834        H  0.20449125  0.06388072  0.52415418     0.07000
C835        C  0.35611890  0.55098694  0.88476902     0.36500
N836        N  0.34832341  0.55174058  0.87690119    -0.38300
N837        N  0.32731872  0.52087058  0.96186418    -0.37700
C838        C  0.33649414  0.53148425  0.60094220     0.38100
N839        N  0.30628739  0.50273771  0.52074066    -0.38300
N840        N  0.32957036  0.53288085  0.61064819    -0.37700
C841        C  0.99796373  0.87023850  0.75139284     0.38100
C842        C  0.00903766  0.85912529  0.75597029     0.36500
N843        N  0.99169587  0.83748994  0.76393956    -0.38300
N844        N  0.97606630  0.85309477  0.75738577    -0.37700
C845        C  0.22854323  0.04676042  0.94941570    -0.01500
C846        C  0.21945176  0.03461960  0.91874316     0.03500
C847        C  0.25654657  0.07036085  0.96254476     0.38100
C848        C  0.23782138  0.04498848  0.90146321     0.36500
N849        N  0.25261468  0.05339629  0.88779587    -0.38300
N850        N  0.27888416  0.08922959  0.97313305    -0.37700
C851        C  0.25027133  0.05670853  0.56876569     0.36500
N852        N  0.26572557  0.06691701  0.55241450    -0.38300
N853        N  0.01403161  0.18388648  0.26707009    -0.35200
N854        N  0.01340068  0.18268111  0.23477399    -0.27400
C855        C  0.04000741  0.20917062  0.22629466    -0.02600
C856        C  0.05747882  0.22236957  0.25224444     0.06000
C857        C  0.04096687  0.21100239  0.27610845     0.04100
H858        H  0.04579492  0.21311837  0.20181680     0.09200
H859        H  0.04768606  0.21674564  0.30123130     0.08000
C860        C  0.83398294  0.74276894  0.04960548     0.04100
C861        C  0.85112977  0.76420208  0.49317313     0.01600
C862        C  0.83886219  0.76250056  0.49145538    -0.10600
C863        C  0.81511524  0.73955757  0.01889743     0.04100
C864        C  0.82199612  0.74138460  0.04853387    -0.10000
H865        H  0.83691995  0.76458919  0.46852916     0.07200
H866        H  0.81821852  0.74191014  0.07067764     0.07000
C867        C  0.04910772  0.19822071  0.28108972    -0.02800
C868        C  0.06096158  0.21397865  0.25446665     0.06000
C869        C  0.04781766  0.19606677  0.22934487     0.04100
H870        H  0.05239085  0.20399121  0.30550724     0.09200
H871        H  0.04990473  0.19978622  0.20419331     0.08000
C872        C  0.80379092  0.73941255  0.01738694     0.04100
C873        C  0.82226158  0.76471374  0.01405626    -0.12100
C874        C  0.77468957  0.71411595  0.01639780    -0.10000
H875        H  0.84478196  0.78423524  0.01436166     0.09700
H876        H  0.76026986  0.69437381  0.01832447     0.07000
C877        C  0.87543518  0.04501828  0.38987552     0.36500
N878        N  0.86816650  0.04642575  0.38320290    -0.38300
N879        N  0.83912137  0.00591386  0.46104124    -0.37700
C880        C  0.87710478  0.04880742  0.10588170     0.38100
N881        N  0.83678849  0.00597796  0.03346240    -0.38300
N882        N  0.87023850  0.05058307  0.11259698    -0.37700
C883        C  0.70519595  0.54162053  0.31852689     0.38100
C884        C  0.76421601  0.60071504  0.31571066     0.36500
N885        N  0.78049213  0.61066018  0.32921522    -0.38300
N886        N  0.69742437  0.52768522  0.33375191    -0.37700
C887        C  0.88571551  0.79043333  0.45263100    -0.01500
C888        C  0.89153068  0.79050680  0.42410377     0.03500
C889        C  0.90831828  0.81640755  0.47116456     0.38100
C890        C  0.92029991  0.81634262  0.41396733     0.36500
N891        N  0.94326045  0.83691706  0.40590255    -0.38300
N892        N  0.92635059  0.83715552  0.48591056    -0.37700
C893        C  0.89042371  0.79595609  0.07747377     0.36500
N894        N  0.90757912  0.81618468  0.06392353    -0.38300
N895        N  0.00334843  0.17270385  0.76584352    -0.35200
N896        N  0.00266515  0.17148168  0.73356244    -0.27400
C897        C  0.02862453  0.19824832  0.72484979    -0.02600
C898        C  0.04695099  0.21282840  0.75067681     0.06000
C899        C  0.02965899  0.20011230  0.77470344     0.04100
H900        H  0.03458015  0.20257434  0.70031657     0.09200
H901        H  0.03662552  0.20626723  0.79977779     0.08000
C902        C  0.84318595  0.75629619  0.55051744     0.04100
C903        C  0.83187387  0.74016404  0.99115385     0.01600
C904        C  0.82014974  0.73905294  0.99031393    -0.10600
C905        C  0.82843011  0.75738983  0.51899936     0.04100
C906        C  0.83065127  0.75433788  0.54848770    -0.10000
H907        H  0.81470776  0.73753836  0.96737434     0.07200
H908        H  0.82276838  0.75056784  0.56984818     0.07000
C909        C  0.04345516  0.19291894  0.77961907    -0.02800
C910        C  0.05355640  0.20752119  0.75286270     0.06000
C911        C  0.04202421  0.19066736  0.72785727     0.04100
H912        H  0.04595267  0.19808281  0.80397685     0.09200
H913        H  0.04318472  0.19367661  0.70269770     0.08000
C914        C  0.81736551  0.75757567  0.51711372     0.04100
C915        C  0.83635871  0.78312209  0.51261357    -0.12100
C916        C  0.78839159  0.73278877  0.51810621    -0.10000
H917        H  0.85873866  0.80224589  0.51208854     0.09700
H918        H  0.77355440  0.71283712  0.52095929     0.07000
C919        C  0.87502425  0.04520904  0.88896125     0.36500
N920        N  0.86926964  0.04808626  0.88126049    -0.38300
N921        N  0.83733356  0.00649297  0.96017918    -0.37700
C922        C  0.86798713  0.03640586  0.60771251     0.38100
N923        N  0.83069612  0.99548024  0.53370958    -0.38300
N924        N  0.85746172  0.03409856  0.61579887    -0.37700
C925        C  0.63171363  0.49454184  0.78982662     0.38100
C926        C  0.69120413  0.54623612  0.79271499     0.36500
N927        N  0.70031623  0.54814256  0.80849482    -0.38300
N928        N  0.61677462  0.47560172  0.80417138    -0.37700
C929        C  0.86144974  0.76055911  0.94753280    -0.01500
C930        C  0.86376169  0.75748200  0.91805844     0.03500
C931        C  0.88643216  0.78786484  0.96414798     0.38100
C932        C  0.89132382  0.78138269  0.90522844     0.36500
N933        N  0.91332101  0.80043020  0.89502666    -0.38300
N934        N  0.90632464  0.80964446  0.97741586    -0.37700
C935        C  0.89590311  0.80034694  0.58476633     0.36500
N936        N  0.91698397  0.82257678  0.57453172    -0.38300
N937        N  0.49844088  0.66190164  0.17733661    -0.26300
N938        N  0.50262283  0.65730249  0.19468568    -0.34200
C939        C  0.50765887  0.65422846  0.17465943     0.02000
C940        C  0.50527183  0.65539912  0.14309115     0.08000
C941        C  0.49930294  0.66020777  0.14601292    -0.05100
H942        H  0.51295548  0.65158872  0.18297482     0.08700
H943        H  0.49494855  0.66150288  0.12673908     0.09900
Cu944      Cu  0.50166008  0.65457826  0.24668790     0.44200
Cu945      Cu  0.49186292  0.67126341  0.19745295     0.42000
Cu946      Cu  0.49443395  0.67245455  0.30141651     0.43900
N947        N  0.50486563  0.65811570  0.29907044    -0.33700
N948        N  0.50241658  0.66400344  0.31808702    -0.28000
C949        C  0.50312791  0.66149977  0.34870844    -0.04100
C950        C  0.50621472  0.65382829  0.34963615     0.08100
C951        C  0.50801891  0.65273323  0.31759616     0.01900
H952        H  0.50014283  0.66377749  0.36862105     0.09600
H953        H  0.51089091  0.64786863  0.30793100     0.08700
C954        C  0.46803958  0.59800080  0.46241893     0.04100
C955        C  0.48078543  0.60887423  0.49352362    -0.12100
C956        C  0.48757473  0.61759618  0.02152956     0.01600
C957        C  0.46083319  0.58803555  0.02205825    -0.10600
C958        C  0.42240669  0.55198597  0.48417713     0.04100
C959        C  0.43881858  0.56944492  0.45810265    -0.10000
H960        H  0.50339619  0.63042918  0.49588118     0.09700
H961        H  0.45048578  0.57759116  0.04460176     0.07200
H962        H  0.42857031  0.56097664  0.43457016     0.07000
N963        N  0.96900202  0.92130742  0.31268751    -0.26300
N964        N  0.95069229  0.91031852  0.29723196    -0.34200
C965        C  0.93341928  0.89834975  0.31876524     0.02000
C966        C  0.94124789  0.90192685  0.34908942     0.08000
C967        C  0.96411220  0.91691086  0.34418104    -0.05100
H968        H  0.91538053  0.88634095  0.31255317     0.08700
H969        H  0.97514954  0.92246097  0.36192358     0.09900
Cu970      Cu  0.94860580  0.90972126  0.24710696     0.44200
Cu971      Cu  0.99551307  0.93584313  0.29079664     0.42000
Cu972      Cu  0.00007311  0.94157846  0.20687503     0.43900
N973        N  0.95365874  0.91410786  0.19741263    -0.33700
N974        N  0.97399967  0.92788249  0.18379198    -0.28000
C975        C  0.97055009  0.92537220  0.15174421    -0.04100
C976        C  0.94632400  0.90837688  0.14441400     0.08100
C977        C  0.93621827  0.90173098  0.17401143     0.01900
H978        H  0.98267368  0.93230495  0.13502056     0.09600
H979        H  0.91626281  0.88684753  0.17820229     0.08700
N980        N  0.01366589  0.94155061  0.23255137    -0.35200
N981        N  0.01197751  0.93948950  0.26406284    -0.27400
C982        C  0.01769122  0.93525776  0.27380916    -0.02600
C983        C  0.02309898  0.93443894  0.24709047     0.06000
C984        C  0.02046729  0.93862164  0.22127693     0.04100
H985        H  0.01585409  0.93087570  0.29819532     0.09200
H986        H  0.02161476  0.93779153  0.19606276     0.08000
C987        C  0.88530311  0.85279788  0.47059409     0.04100
C988        C  0.88367955  0.84979895  0.99639229    -0.12100
C989        C  0.87610154  0.84010565  0.02751261     0.01600
C990        C  0.85030332  0.81130835  0.03188422    -0.10600
C991        C  0.83237827  0.79223041  0.00555252     0.04100
C992        C  0.85860827  0.82357343  0.47413256    -0.10000
H993        H  0.90449258  0.87220856  0.99275341     0.09700
H994        H  0.84531977  0.80398267  0.05559623     0.07200
H995        H  0.84702990  0.80984453  0.45315383     0.07000
N996        N  0.14608701  0.95835585  0.20429605    -0.26300
N997        N  0.16987572  0.98175155  0.22157390    -0.34200
C998        C  0.18955760  0.00385145  0.20259734     0.02000
C999        C  0.17753846  0.99393701  0.17200201     0.08000
C1000       C  0.15000516  0.96502088  0.17397396    -0.05100
H1001       H  0.21051332  0.02561227  0.21093169     0.08700
H1002       H  0.13356417  0.95004099  0.15517815     0.09900
Cu1003     Cu  0.17353219  0.98342179  0.27112010     0.44200
Cu1004     Cu  0.10750517  0.91904106  0.22338797     0.42000
Cu1005     Cu  0.10679266  0.91924941  0.30817108     0.43900
N1006       N  0.16935534  0.97947821  0.32053160    -0.33700
N1007       N  0.14475444  0.95551318  0.33386969    -0.28000
C1008       C  0.14788005  0.96027038  0.36551616    -0.04100
C1009       C  0.17575919  0.98861938  0.37251594     0.08100
C1010       C  0.18887379  0.00020764  0.34349440     0.01900
H1011       H  0.13064974  0.94472311  0.38167941     0.09600
H1012       H  0.21033256  0.02231998  0.33896792     0.08700
N1013       N  0.07299830  0.89244001  0.27904212    -0.35200
N1014       N  0.07210493  0.89045992  0.24750479    -0.27400
C1015       C  0.05372167  0.88012598  0.23445162    -0.02600
C1016       C  0.04436695  0.87771064  0.25861486     0.06000
C1017       C  0.05612683  0.88453817  0.28665860     0.04100
H1018       H  0.05294445  0.88129327  0.20913528     0.09200
H1019       H  0.05734848  0.88944919  0.30980269     0.08000
C1020       C  0.21490466  0.04071864  0.02794359    -0.12100
H1021       H  0.20410488  0.02343629  0.02884722     0.09700
N1022       N  0.44100565  0.61078614  0.30305196    -0.26300
N1023       N  0.41765086  0.58461804  0.29210004    -0.34200
C1024       C  0.39859607  0.56688451  0.31489457     0.02000
C1025       C  0.40984017  0.58227817  0.34186066     0.08000
C1026       C  0.43701489  0.61021974  0.33348830    -0.05100
H1027       H  0.37762694  0.54425662  0.31152047     0.08700
H1028       H  0.45249897  0.62876528  0.34802305     0.09900
Cu1029     Cu  0.40965104  0.57432704  0.24466591     0.44200
Cu1030     Cu  0.47723780  0.64574818  0.27516685     0.42000
Cu1031     Cu  0.47647840  0.64591340  0.22187917     0.43900
N1032       N  0.41418836  0.58598891  0.20239710    -0.33700
N1033       N  0.43852380  0.61245033  0.19429849    -0.28000
C1034       C  0.43541630  0.61313524  0.16405507    -0.04100
C1035       C  0.40792530  0.58582342  0.15256818     0.08100
C1036       C  0.39508940  0.56928583  0.17792888     0.01900
H1037       H  0.45275189  0.63161749  0.14980492     0.09600
H1038       H  0.37459109  0.54662620  0.17704266     0.08700
N1039       N  0.52129300  0.68887451  0.23369642    -0.35200
N1040       N  0.52175602  0.68899983  0.26453066    -0.27400
C1041       C  0.37028685  0.53686768  0.02614051     0.04100
C1042       C  0.36197160  0.51887902  0.02734676    -0.12100
C1043       C  0.35717213  0.50880300  0.99911810     0.01600
C1044       C  0.34075105  0.50195296  0.44845505    -0.10600
C1045       C  0.34799940  0.51886735  0.45407451     0.04100
C1046       C  0.37155980  0.54283072  0.99596422    -0.10000
H1047       H  0.36376442  0.51650123  0.05002337     0.09700
H1048       H  0.34521836  0.50269318  0.42545047     0.07200
H1049       H  0.38039210  0.55860948  0.99453282     0.07000
C1050       C  0.36938206  0.49147081  0.99880778     0.04100
C1051       C  0.37606740  0.49986253  0.48659712    -0.12100
C1052       C  0.39137998  0.52289163  0.48010050     0.01600
C1053       C  0.39942286  0.53748318  0.99583006    -0.10600
C1054       C  0.37013341  0.51063635  0.99827769     0.04100
C1055       C  0.35493306  0.48741908  0.99959735    -0.10000
H1056       H  0.38713153  0.50308657  0.49194627     0.09700
H1057       H  0.41102286  0.55531163  0.99406288     0.07200
H1058       H  0.33219262  0.46647773  0.00109195     0.07000
N1059       N  0.34497349  0.41406245  0.19104271    -0.26300
N1060       N  0.32387417  0.39978716  0.20211630    -0.34200
C1061       C  0.31339931  0.39610714  0.17836017     0.02000
C1062       C  0.32911991  0.40924250  0.15116889     0.08000
C1063       C  0.34908175  0.42057432  0.16060379    -0.05100
H1064       H  0.29571328  0.38475868  0.18089571     0.08700
H1065       H  0.36580345  0.43306938  0.14654793     0.09900
Cu1066     Cu  0.31341787  0.38941078  0.25024432     0.44200
Cu1067     Cu  0.36630897  0.42255111  0.21597804     0.42000
Cu1068     Cu  0.34934385  0.40224114  0.29645957     0.43900
N1069       N  0.31481806  0.38954267  0.30029447    -0.33700
N1070       N  0.32769428  0.39407368  0.31657410    -0.28000
C1071       C  0.32761892  0.39612867  0.34813888    -0.04100
C1072       C  0.31421549  0.39289780  0.35209650     0.08100
C1073       C  0.30626087  0.38864822  0.32129357     0.01900
H1074       H  0.33802421  0.40123820  0.36673180     0.09600
H1075       H  0.29664695  0.38690899  0.31454028     0.08700
N1076       N  0.37532881  0.41678412  0.27161169    -0.35200
N1077       N  0.38184309  0.42468178  0.24165445    -0.27400
C1078       C  0.40031042  0.43481001  0.23220825    -0.02600
C1079       C  0.40559442  0.43312424  0.25747879     0.06000
C1080       C  0.38963805  0.42181616  0.28222168     0.04100
H1081       H  0.40997868  0.44372096  0.20912951     0.09200
H1082       H  0.38936685  0.41860760  0.30644131     0.08000
C1083       C  0.33420001  0.43489473  0.02803008     0.04100
C1084       C  0.34980394  0.45849352  0.02777403    -0.12100
C1085       C  0.35343225  0.46708479  0.99895774     0.01600
C1086       C  0.32243990  0.43513834  0.46355333    -0.10600
C1087       C  0.31148539  0.41516471  0.46702923     0.04100
C1088       C  0.32322739  0.42073486  0.99866138    -0.10000
H1089       H  0.35920558  0.47025476  0.04996245     0.09700
H1090       H  0.32675245  0.44194988  0.43977261     0.07200
H1091       H  0.31152348  0.40278671  0.99829129     0.07000
N1092       N  0.60973020  0.57784363  0.31528805    -0.26300
N1093       N  0.63237621  0.59672333  0.29912768    -0.34200
C1094       C  0.65495268  0.61745144  0.31996086     0.02000
C1095       C  0.64591170  0.61123127  0.35053790     0.08000
C1096       C  0.61712799  0.58590659  0.34653575    -0.05100
H1097       H  0.67642178  0.63604643  0.31325364     0.08700
H1098       H  0.60263660  0.57442984  0.36493299     0.09900
Cu1099     Cu  0.63061648  0.59323807  0.24915146     0.44200
Cu1100     Cu  0.57000469  0.54319704  0.29448319     0.42000
Cu1101     Cu  0.56089197  0.53349337  0.20930686     0.43900
N1102       N  0.62171106  0.58406280  0.19955019    -0.33700
N1103       N  0.59665971  0.56262631  0.18549417    -0.28000
C1104       C  0.59864514  0.56388041  0.15341595    -0.04100
C1105       C  0.62618796  0.58711823  0.14683833     0.08100
C1106       C  0.64021877  0.59939249  0.17659372     0.01900
H1107       H  0.58148896  0.54945451  0.13613303     0.09600
H1108       H  0.66252477  0.61875764  0.18114058     0.08700
N1109       N  0.52960314  0.50955491  0.23854215    -0.35200
N1110       N  0.53312573  0.51319112  0.27015979    -0.27400
C1111       C  0.51128833  0.49786095  0.28244662    -0.02600
C1112       C  0.49309030  0.48385640  0.25734352     0.06000
C1113       C  0.50530039  0.49169613  0.22981082     0.04100
H1114       H  0.51000006  0.49878220  0.30747082     0.09200
H1115       H  0.49834980  0.48680561  0.20522816     0.08000
C1116       C  0.68696985  0.64412265  0.02913641     0.04100
C1117       C  0.71639515  0.67073568  0.03355764    -0.12100
C1118       C  0.73364753  0.68739676  0.00716412     0.01600
C1119       C  0.73517702  0.69688673  0.47954696    -0.10600
C1120       C  0.70569632  0.66989710  0.47491366     0.04100
C1121       C  0.67495761  0.63413335  0.99794543    -0.10000
H1122       H  0.72583861  0.67843617  0.05748150     0.09700
H1123       H  0.74833353  0.70940689  0.45889957     0.07200
H1124       H  0.65222343  0.61331468  0.99422516     0.07000
C1125       C  0.81191188  0.76498645  0.00923533     0.01600
C1126       C  0.78279289  0.73966562  0.00731216    -0.10600
C1127       C  0.76415863  0.71419945  0.01123788     0.04100
H1128       H  0.77470012  0.73974685  0.00280895     0.07200
C1129       C  0.66889549  0.62682450  0.05743758    -0.04400
C1130       C  0.65339193  0.62104570  0.06665871    -0.01500
C1131       C  0.63822464  0.60677613  0.09507609     0.03500
C1132       C  0.63904464  0.59881448  0.11491141    -0.04400
C1133       C  0.65337734  0.60333907  0.10486325    -0.01500
C1134       C  0.66814625  0.61717835  0.07614005     0.03500
C1135       C  0.65414731  0.63099921  0.04776721     0.38100
C1136       C  0.65231869  0.59310182  0.12370018     0.38100
C1137       C  0.68243620  0.62134140  0.06567035     0.36500
C1138       C  0.62261373  0.60122687  0.10438755     0.36500
N1139       N  0.69382345  0.62466114  0.05723794    -0.38300
N1140       N  0.61002143  0.59665800  0.11163184    -0.38300
N1141       N  0.65130246  0.58475854  0.13862660    -0.37700
N1142       N  0.65478004  0.63899334  0.03284057    -0.37700
C1143       C  0.69232193  0.65716156  0.44187008    -0.04400
C1144       C  0.67450207  0.64856189  0.43061621    -0.01500
C1145       C  0.66030507  0.63462290  0.40020279     0.03500
C1146       C  0.66309015  0.62835800  0.38114548    -0.04400
C1147       C  0.68116436  0.63724727  0.39229330    -0.01500
C1148       C  0.69596024  0.65186760  0.42230921     0.03500
C1149       C  0.67073794  0.65405735  0.45024072     0.38100
C1150       C  0.68330618  0.62990991  0.37389560     0.38100
C1151       C  0.71407124  0.66043552  0.43373499     0.36500
C1152       C  0.64321916  0.62721251  0.38829101     0.36500
N1153       N  0.72869940  0.66752516  0.44304256    -0.38300
N1154       N  0.62963461  0.62133993  0.37872170    -0.38300
N1155       N  0.68498978  0.62397287  0.35950344    -0.37700
N1156       N  0.66743661  0.65819402  0.46566016    -0.37700
C1157       C  0.42752801  0.44553173  0.25918784    -0.04400
C1158       C  0.42071120  0.42906119  0.25093191    -0.01500
C1159       C  0.44217346  0.44157688  0.25020428     0.03500
C1160       C  0.47032349  0.47037707  0.25879297    -0.04400
C1161       C  0.47689953  0.48657705  0.26821346    -0.01500
C1162       C  0.45561245  0.47426841  0.26788185     0.03500
C1163       C  0.39160154  0.39924846  0.24331866     0.38100
C1164       C  0.50567731  0.51608529  0.27767421     0.38100
C1165       C  0.46265274  0.49126413  0.27610816     0.36500
C1166       C  0.43525724  0.42476730  0.24108843     0.36500
N1167       N  0.46827609  0.50483249  0.28254687    -0.38300
N1168       N  0.42971384  0.41133202  0.23381542    -0.38300
N1169       N  0.52858900  0.53955757  0.28545862    -0.37700
N1170       N  0.36832341  0.37542402  0.23749960    -0.37700
C1171       C  0.31311796  0.39789507  0.38227758    -0.04400
C1172       C  0.28701988  0.37719061  0.39317709    -0.01500
C1173       C  0.28613609  0.38213602  0.42179611     0.03500
C1174       C  0.31137848  0.40808237  0.43903202    -0.04400
C1175       C  0.33738778  0.42852723  0.42859188    -0.01500
C1176       C  0.33830825  0.42354910  0.40028217     0.03500
C1177       C  0.26106554  0.35076019  0.37501474     0.38100
C1178       C  0.36332789  0.45486523  0.44707541     0.38100
C1179       C  0.36544645  0.44554756  0.38897687     0.36500
C1180       C  0.25935099  0.36061684  0.43356000     0.36500
N1181       N  0.38718162  0.46323820  0.38008678    -0.38300
N1182       N  0.23796322  0.34335760  0.44313571    -0.38300
N1183       N  0.38387961  0.47576871  0.46195474    -0.37700
N1184       N  0.24038675  0.32973807  0.36038707    -0.37700
C1185       C  0.32688100  0.41233789  0.11905007    -0.04400
C1186       C  0.32002026  0.41643666  0.11625633    -0.01500
C1187       C  0.32051508  0.42180717  0.08611029     0.03500
C1188       C  0.33042537  0.42583235  0.05895466    -0.04400
C1189       C  0.33723647  0.42170700  0.06172026    -0.01500
C1190       C  0.33369402  0.41324107  0.09090267     0.03500
C1191       C  0.31367254  0.41652325  0.14434429     0.38100
C1192       C  0.34930593  0.42749830  0.03513288     0.38100
C1193       C  0.33629541  0.40464947  0.09133963     0.36500
C1194       C  0.31057528  0.42299247  0.08309753     0.36500
N1195       N  0.33825528  0.39769195  0.09144670    -0.38300
N1196       N  0.30263616  0.42391770  0.08064124    -0.38300
N1197       N  0.35902015  0.43218433  0.01404696    -0.37700
N1198       N  0.30866517  0.41677537  0.16651748    -0.37700
C1199       C  0.39498627  0.57009856  0.37259275    -0.04400
C1200       C  0.40911614  0.58181939  0.40294950    -0.01500
C1201       C  0.39354070  0.56615238  0.43083345     0.03500
C1202       C  0.36379096  0.53864098  0.42864971    -0.04400
C1203       C  0.34980996  0.52830036  0.39936410    -0.01500
C1204       C  0.36536130  0.54427009  0.37163209     0.03500
C1205       C  0.43947298  0.60912023  0.40603101     0.38100
C1206       C  0.31922686  0.50041334  0.39739799     0.38100
C1207       C  0.40811013  0.57732768  0.46133300     0.36500
N1208       N  0.41964113  0.58613804  0.48563866    -0.38300
N1209       N  0.46363717  0.63089716  0.41022096    -0.37700
C1210       C  0.40026827  0.57615870  0.11868784    -0.04400
C1211       C  0.38111897  0.56431260  0.09984862    -0.01500
C1212       C  0.37162962  0.55204216  0.06893539     0.03500
C1213       C  0.38259537  0.55311313  0.05621543    -0.04400
C1214       C  0.40403448  0.56781803  0.07417785    -0.01500
C1215       C  0.41116638  0.57726819  0.10587471     0.03500
C1216       C  0.41955365  0.57400820  0.06026115     0.38100
C1217       C  0.42784567  0.58585251  0.12619868     0.36500
C1218       C  0.35004990  0.53763504  0.05091971     0.36500
N1219       N  0.44023346  0.59171463  0.14273789    -0.38300
N1220       N  0.43300880  0.57999791  0.05038717    -0.37700
C1221       C  0.03934856  0.88416123  0.25474451    -0.04400
C1222       C  0.05894461  0.90840531  0.23836851    -0.01500
C1223       C  0.05482278  0.91512121  0.23536129     0.03500
C1224       C  0.03252816  0.89917225  0.25082547    -0.04400
C1225       C  0.01354986  0.87564715  0.26823504    -0.01500
C1226       C  0.01669155  0.86788768  0.26978115     0.03500
C1227       C  0.08461763  0.92782764  0.22664571     0.38100
C1228       C  0.07382568  0.93878740  0.21662883     0.36500
N1229       N  0.08890906  0.95757367  0.20156390    -0.38300
N1230       N  0.10518896  0.94338161  0.21769521    -0.37700
C1231       C  0.18726479  0.00395597  0.40275277    -0.04400
C1232       C  0.17509312  0.00165198  0.41462434    -0.01500
C1233       C  0.18549622  0.01561264  0.44377143     0.03500
C1234       C  0.20822833  0.03207622  0.46122731    -0.04400
C1235       C  0.15256859  0.98582937  0.39624468     0.38100
C1236       C  0.17287129  0.01315828  0.45565829     0.36500
N1237       N  0.16297001  0.01139958  0.46495237    -0.38300
N1238       N  0.13466796  0.97328404  0.38156503    -0.37700
C1239       C  0.19024119  0.01075185  0.14405232    -0.04400
C1240       C  0.21576115  0.03078774  0.13199343    -0.01500
C1241       C  0.22649874  0.04502952  0.10388862     0.03500
C1242       C  0.21178537  0.03929100  0.08770426    -0.04400
C1243       C  0.18743467  0.02082113  0.10100759    -0.01500
C1244       C  0.17670209  0.00661876  0.12907333     0.03500
C1245       C  0.23068753  0.03634423  0.14805615     0.38100
C1246       C  0.17345011  0.01650383  0.08578625     0.38100
C1247       C  0.15228395  0.98854901  0.14307507     0.36500
N1248       N  0.13290297  0.97433876  0.15409784    -0.38300
N1249       N  0.16253605  0.01333936  0.07373921    -0.37700
N1250       N  0.24263468  0.04084459  0.16100362    -0.37700
C1251       C  0.89871204  0.86471119  0.43888812    -0.04400
C1252       C  0.90501948  0.87946884  0.42163156    -0.01500
C1253       C  0.91849621  0.89128465  0.39199117     0.03500
C1254       C  0.92563326  0.88829000  0.37937151    -0.04400
C1255       C  0.91847260  0.87273692  0.39632926    -0.01500
C1256       C  0.90569118  0.86158858  0.42617057     0.03500
C1257       C  0.89751045  0.88236216  0.43433267     0.38100
C1258       C  0.92322970  0.86716010  0.38267103     0.38100
C1259       C  0.90038777  0.84745978  0.44424264     0.36500
C1260       C  0.92557932  0.90705898  0.37489909     0.36500
N1261       N  0.89623070  0.83626420  0.45863326    -0.38300
N1262       N  0.93119172  0.91960294  0.36119901    -0.38300
N1263       N  0.92687351  0.86255688  0.37185705    -0.37700
N1264       N  0.89148491  0.88464257  0.44444577    -0.37700
C1265       C  0.92960409  0.89224624  0.11344007    -0.04400
C1266       C  0.92021624  0.89241586  0.09715285    -0.01500
C1267       C  0.90356363  0.87617622  0.06830117     0.03500
C1268       C  0.89642081  0.85990550  0.05547182    -0.04400
C1269       C  0.90672670  0.86060249  0.07102744    -0.01500
C1270       C  0.92270984  0.87618561  0.10015521     0.03500
C1271       C  0.92769984  0.90933867  0.10964409     0.38100
C1272       C  0.90085086  0.84518014  0.05714979     0.38100
C1273       C  0.93086587  0.87449276  0.11710448     0.36500
C1274       C  0.89304310  0.87551273  0.05221887     0.36500
N1275       N  0.93736693  0.87315596  0.13064096    -0.38300
N1276       N  0.88456812  0.87486706  0.03924142    -0.38300
N1277       N  0.89640148  0.83305369  0.04639871    -0.37700
N1278       N  0.93329814  0.92265132  0.11864025    -0.37700
C1279       C  0.02996321  0.90810452  0.24971888    -0.04400
C1280       C  0.01034228  0.89451963  0.22801490    -0.01500
C1281       C  0.00813693  0.90316672  0.22679762     0.03500
C1282       C  0.02633036  0.92618820  0.24655184    -0.04400
C1283       C  0.04665309  0.94036332  0.26743296    -0.01500
C1284       C  0.04815617  0.93107577  0.26938024     0.03500
C1285       C  0.99261604  0.87177788  0.20676038     0.38100
C1286       C  0.06659505  0.96504362  0.28631798     0.38100
C1287       C  0.06848533  0.94518151  0.29160091     0.36500
C1288       C  0.98629964  0.88750304  0.20621559     0.36500
N1289       N  0.08468908  0.95641135  0.30929761    -0.38300
N1290       N  0.96875650  0.87485540  0.18985814    -0.38300
N1291       N  0.08256341  0.98480668  0.30122644    -0.37700
N1292       N  0.97864644  0.85375160  0.18976484    -0.37700
C1293       C  0.48408290  0.61675316  0.43468992    -0.04400
C1294       C  0.49869769  0.63970049  0.43694604    -0.01500
C1295       C  0.51030579  0.65479323  0.40951584     0.03500
C1296       C  0.50287957  0.64404490  0.37853622    -0.04400
C1297       C  0.48917023  0.62168545  0.37632155    -0.01500
C1298       C  0.48150708  0.60944316  0.40448873     0.03500
C1299       C  0.49875769  0.64575979  0.46618715     0.38100
C1300       C  0.48089734  0.60949977  0.34553734     0.38100
C1301       C  0.46971994  0.58830756  0.40218100     0.36500
C1302       C  0.52974804  0.68133126  0.41346235     0.36500
N1303       N  0.46039556  0.57152247  0.40022333    -0.38300
N1304       N  0.54540698  0.70258516  0.41675503    -0.38300
N1305       N  0.47389082  0.59924604  0.32130166    -0.37700
N1306       N  0.49829407  0.65043217  0.48883495    -0.37700
C1307       C  0.49975722  0.63363839  0.05225878    -0.04400
C1308       C  0.50934789  0.65280956  0.05369590    -0.01500
C1309       C  0.51459501  0.66253743  0.08370995     0.03500
C1310       C  0.50636452  0.65024811  0.11252241    -0.04400
C1311       C  0.49819474  0.63224980  0.11114463    -0.01500
C1312       C  0.49752664  0.62629154  0.08162903     0.03500
C1313       C  0.51292598  0.66209045  0.02487604     0.38100
C1314       C  0.48816341  0.61769950  0.13906585     0.38100
C1315       C  0.49411606  0.61213934  0.08149322     0.36500
C1316       C  0.52902030  0.68568260  0.08463527     0.36500
N1317       N  0.49154377  0.60099468  0.08137356    -0.38300
N1318       N  0.54073734  0.70429179  0.08517289    -0.38300
N1319       N  0.47970187  0.60552347  0.16087591    -0.37700
N1320       N  0.51626824  0.67014385  0.00238330    -0.37700
N1321       N  0.46061872  0.62364004  0.66886945    -0.26300
N1322       N  0.45984536  0.61510315  0.68956329    -0.34200
C1323       C  0.46301759  0.60934104  0.67293743     0.02000
C1324       C  0.46570209  0.61411791  0.64066388     0.08000
C1325       C  0.46387006  0.62293445  0.63915418    -0.05100
H1326       H  0.46498458  0.60374790  0.68396596     0.08700
H1327       H  0.46569822  0.62930865  0.61799275     0.09900
Cu1328     Cu  0.46012669  0.61613959  0.74256737     0.44200
Cu1329     Cu  0.46190905  0.64128611  0.68208959     0.42000
Cu1330     Cu  0.47264247  0.65452959  0.78495049     0.43900
N1331       N  0.47030578  0.62826991  0.79415044    -0.33700
N1332       N  0.47592766  0.64245642  0.80856160    -0.28000
C1333       C  0.48430652  0.64851712  0.83935139    -0.04100
C1334       C  0.48307366  0.63701145  0.84536508     0.08100
C1335       C  0.47435094  0.62460626  0.81611679     0.01900
H1336       H  0.49052184  0.66022428  0.85621123     0.09600
H1337       H  0.47072769  0.61325148  0.81123696     0.08700
C1338       C  0.48291592  0.61334408  0.96287365     0.04100
C1339       C  0.49917641  0.63010549  0.99138888    -0.12100
C1340       C  0.46422190  0.59236082  0.52081967     0.01600
C1341       C  0.43493304  0.56357950  0.51516650    -0.10600
C1342       C  0.44510179  0.57120671  0.99370904     0.04100
C1343       C  0.45672403  0.58412394  0.96414208    -0.10000
H1344       H  0.51951593  0.65262984  0.98987380     0.09700
H1345       H  0.42102561  0.55017773  0.53498613     0.07200
H1346       H  0.44368616  0.57121829  0.94230432     0.07000
N1347       N  0.95245170  0.90626142  0.81468442    -0.26300
N1348       N  0.93695958  0.89880821  0.79928407    -0.34200
C1349       C  0.91743777  0.88416066  0.81930160     0.02000
C1350       C  0.92109322  0.88249838  0.84848571     0.08000
C1351       C  0.94366997  0.89704028  0.84461035    -0.05100
H1352       H  0.90120559  0.87457015  0.81276042     0.08700
H1353       H  0.95236000  0.89969546  0.86188336     0.09900
Cu1354     Cu  0.94358584  0.90855906  0.75122860     0.44200
Cu1355     Cu  0.98215744  0.92492448  0.79399574     0.42000
Cu1356     Cu  0.00590846  0.95368111  0.71796872     0.43900
N1357       N  0.95645684  0.92187667  0.70390998    -0.33700
N1358       N  0.97990754  0.93969001  0.69307805    -0.28000
C1359       C  0.97960316  0.94033471  0.66095116    -0.04100
C1360       C  0.95446031  0.92146357  0.65065944     0.08100
C1361       C  0.94054395  0.91052152  0.67863248     0.01900
H1362       H  0.99486300  0.95096092  0.64590493     0.09600
H1363       H  0.91904920  0.89320840  0.68015299     0.08700
N1364       N  0.01624829  0.94955528  0.73958721    -0.35200
N1365       N  0.00646085  0.93796123  0.76767501    -0.27400
C1366       C  0.01174476  0.93301274  0.77344494    -0.02600
C1367       C  0.02572117  0.94203475  0.74776510     0.06000
C1368       C  0.02831322  0.95252245  0.72668496     0.04100
H1369       H  0.00439344  0.92205644  0.79393675     0.09200
H1370       H  0.03692961  0.96030952  0.70304686     0.08000
C1371       C  0.86544326  0.83066274  0.96973140     0.04100
C1372       C  0.90146996  0.87078350  0.49809485    -0.12100
C1373       C  0.89141995  0.85973047  0.52883920     0.01600
C1374       C  0.86497776  0.83061001  0.53200485    -0.10600
C1375       C  0.84864511  0.81243465  0.50480538     0.04100
C1376       C  0.83921176  0.80170480  0.97472520    -0.10000
H1377       H  0.92266597  0.89336241  0.49566845     0.09700
H1378       H  0.85828548  0.82233628  0.55572246     0.07200
H1379       H  0.82580391  0.78697287  0.95423004     0.07000
N1380       N  0.16312025  0.97241143  0.70306338    -0.26300
N1381       N  0.18612100  0.99622378  0.72046888    -0.34200
C1382       C  0.20664634  0.01765923  0.70030888     0.02000
C1383       C  0.19605139  0.00675942  0.66889657     0.08000
C1384       C  0.16843884  0.97804970  0.67172517    -0.05100
H1385       H  0.22666480  0.03961427  0.70784680     0.08700
H1386       H  0.15232385  0.96284014  0.65254937     0.09900
Cu1387     Cu  0.18665959  0.99887314  0.77052446     0.44200
Cu1388     Cu  0.12302811  0.93519192  0.72034155     0.42000
Cu1389     Cu  0.11728160  0.93355644  0.80323904     0.43900
N1390       N  0.17933644  0.99327980  0.81981612    -0.33700
N1391       N  0.15411438  0.96842597  0.83135317    -0.28000
C1392       C  0.15546738  0.97118866  0.86325436    -0.04100
C1393       C  0.18266407  0.99933030  0.87266239     0.08100
C1394       C  0.19732161  0.01270664  0.84434224     0.01900
H1395       H  0.13737564  0.95401663  0.87815849     0.09600
H1396       H  0.21903527  0.03507239  0.84145343     0.08700
N1397       N  0.08828082  0.91254763  0.76997843    -0.35200
N1398       N  0.09027780  0.91290966  0.73880577    -0.27400
C1399       C  0.07589963  0.90690589  0.72281028    -0.02600
C1400       C  0.06451920  0.90284821  0.74498291     0.06000
C1401       C  0.07257750  0.90630731  0.77463533     0.04100
H1402       H  0.07780864  0.91020845  0.69746163     0.09200
H1403       H  0.07134620  0.90900322  0.79755190     0.08000
C1404       C  0.21712925  0.04051982  0.52125727    -0.12100
H1405       H  0.20690574  0.02367293  0.52255469     0.09700
N1406       N  0.41336859  0.59172829  0.79697914    -0.26300
N1407       N  0.38630779  0.56645407  0.78802782    -0.34200
C1408       C  0.37055856  0.55196205  0.81411659     0.02000
C1409       C  0.38842537  0.56890290  0.84107935     0.08000
C1410       C  0.41527725  0.59400584  0.82927514    -0.05100
H1411       H  0.34796506  0.52982071  0.81353609     0.08700
H1412       H  0.43462808  0.61136036  0.84349281     0.09900
Cu1413     Cu  0.37211488  0.55170260  0.74150274     0.44200
Cu1414     Cu  0.44730242  0.62050882  0.76657398     0.42000
Cu1415     Cu  0.44167544  0.61374672  0.71085889     0.43900
N1416       N  0.37854092  0.55783989  0.69357976    -0.33700
N1417       N  0.40414640  0.58119817  0.68237583    -0.28000
C1418       C  0.40160760  0.57884791  0.65007347    -0.04100
C1419       C  0.37326861  0.55269163  0.64067719     0.08100
C1420       C  0.35919546  0.53990132  0.66899413     0.01900
H1421       H  0.41889726  0.59397377  0.63426867     0.09600
H1422       H  0.33665559  0.51840956  0.67162092     0.08700
N1423       N  0.48723793  0.65491038  0.72003472    -0.35200
N1424       N  0.49039332  0.65878238  0.75059009    -0.27400
C1425       C  0.33888494  0.50816476  0.51096831     0.04100
C1426       C  0.32965396  0.48961687  0.50399769    -0.12100
C1427       C  0.33455447  0.48983974  0.47401291     0.01600
C1428       C  0.35435498  0.51137371  0.96990472    -0.10600
C1429       C  0.36367427  0.53016125  0.96749806     0.04100
C1430       C  0.34756581  0.52239252  0.48550214    -0.10000
H1431       H  0.32411757  0.47950733  0.52349670     0.09700
H1432       H  0.34955381  0.50255114  0.94825539     0.07200
H1433       H  0.35647042  0.53811807  0.49046017     0.07000
C1434       C  0.34642948  0.47262496  0.48616686     0.04100
C1435       C  0.39899291  0.51875042  0.99686775    -0.12100
C1436       C  0.41405505  0.54187177  0.99528220     0.01600
C1437       C  0.37693619  0.51849852  0.47311632    -0.10600
C1438       C  0.34739661  0.49156153  0.47421375     0.04100
C1439       C  0.33208100  0.46851837  0.48063296    -0.10000
H1440       H  0.41008291  0.52184998  0.99632069     0.09700
H1441       H  0.38896883  0.53656733  0.46950266     0.07200
H1442       H  0.30931817  0.44770409  0.48171209     0.07000
N1443       N  0.34481766  0.42190058  0.69544710    -0.26300
N1444       N  0.32008173  0.40238886  0.70389997    -0.34200
C1445       C  0.30824479  0.39670523  0.67920753     0.02000
C1446       C  0.32664516  0.41376470  0.65407648     0.08000
C1447       C  0.34978465  0.42974431  0.66570651    -0.05100
H1448       H  0.28742734  0.38071788  0.67928882     0.08700
H1449       H  0.36861106  0.44537657  0.65314521     0.09900
Cu1450     Cu  0.30494463  0.38575618  0.74924436     0.44200
Cu1451     Cu  0.36836558  0.43318499  0.72142828     0.42000
Cu1452     Cu  0.33826613  0.39521868  0.79151585     0.43900
N1453       N  0.30340926  0.38190401  0.79844358    -0.33700
N1454       N  0.31483636  0.38453948  0.81330522    -0.28000
C1455       C  0.31592572  0.38726824  0.84510919    -0.04100
C1456       C  0.30491783  0.38657031  0.85068828     0.08100
C1457       C  0.29707299  0.38303999  0.82060770     0.01900
H1458       H  0.32734824  0.39315300  0.86247726     0.09600
H1459       H  0.29058940  0.38472808  0.81503387     0.08700
N1460       N  0.37241121  0.42026741  0.77063143    -0.35200
N1461       N  0.38392343  0.43491030  0.74516224    -0.27400
C1462       C  0.40667209  0.45054588  0.73809042    -0.02600
C1463       C  0.40991553  0.44583073  0.76043940     0.06000
C1464       C  0.38775532  0.42643852  0.78075162     0.04100
H1465       H  0.42002210  0.46451320  0.71824568     0.09200
H1466       H  0.38357276  0.41808564  0.80182322     0.08000
C1467       C  0.31590773  0.42107511  0.52527928     0.04100
C1468       C  0.32782610  0.44184014  0.52137581    -0.12100
C1469       C  0.33069694  0.44855014  0.49059506     0.01600
C1470       C  0.34279442  0.45308516  0.96993754    -0.10600
C1471       C  0.32851692  0.43048793  0.96951520     0.04100
C1472       C  0.30692735  0.40714906  0.49781214    -0.10000
H1473       H  0.33607609  0.45369993  0.54215027     0.09700
H1474       H  0.34662017  0.46048954  0.94752654     0.07200
H1475       H  0.29867626  0.39185540  0.50032891     0.07000
N1476       N  0.60171119  0.56969971  0.80957145    -0.26300
N1477       N  0.62399061  0.58748522  0.79390536    -0.34200
C1478       C  0.64528869  0.60525713  0.81537553     0.02000
C1479       C  0.63579964  0.59825987  0.84586355     0.08000
C1480       C  0.60810312  0.57558695  0.84124333    -0.05100
H1481       H  0.66648907  0.62291772  0.80919755     0.08700
H1482       H  0.59410853  0.56514985  0.85946364     0.09900
Cu1483     Cu  0.62474816  0.58845947  0.74411724     0.44200
Cu1484     Cu  0.56529366  0.54154263  0.78783400     0.42000
Cu1485     Cu  0.56500744  0.54593212  0.70297311     0.43900
N1486       N  0.62029293  0.58619686  0.69465776    -0.33700
N1487       N  0.59873833  0.57080381  0.67969587    -0.28000
C1488       C  0.60362226  0.57585103  0.64811855    -0.04100
C1489       C  0.62960120  0.59555548  0.64297121     0.08100
C1490       C  0.63941467  0.60145913  0.67303689     0.01900
H1491       H  0.58986785  0.56682249  0.63044717     0.09600
H1492       H  0.65976275  0.61699088  0.67905691     0.08700
N1493       N  0.53456480  0.52339713  0.73277507    -0.35200
N1494       N  0.53436931  0.52114441  0.76382523    -0.27400
C1495       C  0.51309602  0.50643175  0.77700549    -0.02600
C1496       C  0.49923236  0.49908354  0.75310443     0.06000
C1497       C  0.51339362  0.51024978  0.72537633     0.04100
H1498       H  0.50893800  0.50260744  0.80236062     0.09200
H1499       H  0.50916323  0.50961048  0.70186461     0.08000
C1500       C  0.70082353  0.66349533  0.53263647     0.04100
C1501       C  0.73035495  0.69000814  0.53684751    -0.12100
C1502       C  0.74765810  0.70687154  0.51028193     0.01600
C1503       C  0.72158800  0.67750687  0.97625365    -0.10600
C1504       C  0.69227443  0.65073184  0.97147127     0.04100
C1505       C  0.68871669  0.65354299  0.50160528    -0.10000
H1506       H  0.73978394  0.69742496  0.56062234     0.09700
H1507       H  0.73494175  0.69015670  0.95575731     0.07200
H1508       H  0.66594599  0.63261292  0.49813748     0.07000
C1509       C  0.82697909  0.78442450  0.50869721     0.01600
C1510       C  0.79792978  0.75958290  0.50865541    -0.10600
C1511       C  0.77845254  0.73357913  0.51352252     0.04100
H1512       H  0.79053830  0.76043381  0.50476754     0.07200
C1513       C  0.68209376  0.64553261  0.56048587    -0.04400
C1514       C  0.66774738  0.64099410  0.57057273    -0.01500
C1515       C  0.65009630  0.62416965  0.59698859     0.03500
C1516       C  0.64611869  0.61117770  0.61326701    -0.04400
C1517       C  0.65939913  0.61460823  0.60215502    -0.01500
C1518       C  0.67744802  0.63185745  0.57601181     0.03500
C1519       C  0.67144395  0.65400607  0.55403312     0.38100
C1520       C  0.65369919  0.59957219  0.61687727     0.38100
C1521       C  0.69062576  0.63490787  0.56445801     0.36500
C1522       C  0.63698499  0.62126192  0.60806764     0.36500
N1523       N  0.70107916  0.63728542  0.55515103    -0.38300
N1524       N  0.62650848  0.61892519  0.61686678    -0.38300
N1525       N  0.64898688  0.58741678  0.62847782    -0.37700
N1526       N  0.67416111  0.66419832  0.54092692    -0.37700
C1527       C  0.67966493  0.63925627  0.93835102    -0.04400
C1528       C  0.66716078  0.63662916  0.92608609    -0.01500
C1529       C  0.65392941  0.62436027  0.89516644     0.03500
C1530       C  0.65251988  0.61400362  0.87671720    -0.04400
C1531       C  0.66619675  0.61784147  0.88842538    -0.01500
C1532       C  0.68012560  0.63084976  0.91900400     0.03500
C1533       C  0.66851933  0.64717978  0.94495863     0.38100
C1534       C  0.66500966  0.60743019  0.86965293     0.38100
C1535       C  0.69476960  0.63540991  0.93074580     0.36500
C1536       C  0.64256157  0.62322587  0.88192140     0.36500
N1537       N  0.70677477  0.63942349  0.94012760    -0.38300
N1538       N  0.63364741  0.62246023  0.87119491    -0.38300
N1539       N  0.66403344  0.59906908  0.85480864    -0.37700
N1540       N  0.66966739  0.65570118  0.95978428    -0.37700
C1541       C  0.43297375  0.45959350  0.76216457    -0.04400
C1542       C  0.42680505  0.44335172  0.76379383    -0.01500
C1543       C  0.44862474  0.45638879  0.76145629     0.03500
C1544       C  0.47658320  0.48559288  0.75737353    -0.04400
C1545       C  0.48301306  0.50203170  0.75764089    -0.01500
C1546       C  0.46133558  0.48913207  0.76027965     0.03500
C1547       C  0.39795585  0.41312232  0.76658887     0.38100
C1548       C  0.51204948  0.53232550  0.75557522     0.38100
C1549       C  0.46840507  0.50643600  0.76195014     0.36500
C1550       C  0.44221678  0.43965145  0.76227449     0.36500
N1551       N  0.47404744  0.52023608  0.76338280    -0.38300
N1552       N  0.43712479  0.42631668  0.76291227    -0.38300
N1553       N  0.53520841  0.55648871  0.75400042    -0.37700
N1554       N  0.37497611  0.38900863  0.76892332    -0.37700
C1555       C  0.31050974  0.39785753  0.88021039    -0.04400
C1556       C  0.28819927  0.37999123  0.89963958    -0.01500
C1557       C  0.29388255  0.39062745  0.92862780     0.03500
C1558       C  0.32198281  0.41915929  0.93840580    -0.04400
C1559       C  0.34429930  0.43702625  0.91877298    -0.01500
C1560       C  0.33852379  0.42653667  0.88952670     0.03500
C1561       C  0.25947473  0.35054151  0.89005671     0.38100
C1562       C  0.37339656  0.46602010  0.92921764     0.38100
C1563       C  0.36147518  0.44542349  0.86880842     0.36500
C1564       C  0.27082264  0.37224971  0.94830425     0.36500
N1565       N  0.37976270  0.46051799  0.85224480    -0.38300
N1566       N  0.25242513  0.35757130  0.96405151    -0.38300
N1567       N  0.39656649  0.48909377  0.93762406    -0.37700
N1568       N  0.23659199  0.32703987  0.88234287    -0.37700
C1569       C  0.32204191  0.41367498  0.62085925    -0.04400
C1570       C  0.30860182  0.41070959  0.61557814    -0.01500
C1571       C  0.30469577  0.41096043  0.58407117     0.03500
C1572       C  0.31649919  0.41684873  0.55784315    -0.04400
C1573       C  0.33030431  0.42024699  0.56317790    -0.01500
C1574       C  0.33161093  0.41708062  0.59404048     0.03500
C1575       C  0.29982905  0.40866322  0.64245406     0.38100
C1576       C  0.34422098  0.42805117  0.53725494     0.38100
C1577       C  0.34194456  0.41632505  0.59755200     0.36500
C1578       C  0.28798864  0.40457447  0.57858961     0.36500
N1579       N  0.35009068  0.41561797  0.60005334    -0.38300
N1580       N  0.27442875  0.39920276  0.57418346    -0.38300
N1581       N  0.35533386  0.43423751  0.51673199    -0.37700
N1582       N  0.29292453  0.40719825  0.66376954    -0.37700
C1583       C  0.38145939  0.55859771  0.87322927    -0.04400
C1584       C  0.39016146  0.55682326  0.88222618    -0.01500
C1585       C  0.38556080  0.54891819  0.91323607     0.03500
C1586       C  0.36974330  0.54003189  0.93501476    -0.04400
C1587       C  0.35958566  0.54029631  0.92512681    -0.01500
C1588       C  0.36588203  0.55003193  0.89453194     0.03500
C1589       C  0.40279938  0.56187644  0.85895503     0.38100
C1590       C  0.34173267  0.52955494  0.94571511     0.38100
C1591       C  0.39750070  0.55021158  0.92196253     0.36500
N1592       N  0.40693361  0.55102203  0.92729991    -0.38300
N1593       N  0.41242044  0.56538343  0.84045267    -0.37700
C1594       C  0.36154485  0.53840880  0.60887295    -0.04400
C1595       C  0.34498288  0.52952906  0.58889549    -0.01500
C1596       C  0.33680809  0.51888057  0.55720864     0.03500
C1597       C  0.34543239  0.51731711  0.54525457    -0.04400
C1598       C  0.36152909  0.52570624  0.56608962    -0.01500
C1599       C  0.36838342  0.53497520  0.59793791     0.03500
C1600       C  0.37255170  0.52632844  0.55500802     0.38100
C1601       C  0.38196507  0.54034747  0.61994133     0.36500
C1602       C  0.31971749  0.50976818  0.53696434     0.36500
N1603       N  0.39238904  0.54426203  0.63771906    -0.38300
N1604       N  0.38137262  0.52674756  0.54716047    -0.37700
C1605       C  0.05778273  0.90748411  0.73946768    -0.04400
C1606       C  0.07905129  0.93399804  0.72988824    -0.01500
C1607       C  0.07337364  0.93919288  0.72683431     0.03500
C1608       C  0.04686157  0.91841462  0.73478548    -0.04400
C1609       C  0.02540554  0.89175542  0.74377858    -0.01500
C1610       C  0.03085609  0.88628706  0.74605810     0.03500
C1611       C  0.10748452  0.95674783  0.72588930     0.38100
C1612       C  0.09506355  0.96622397  0.71642163     0.36500
N1613       N  0.11235347  0.98775527  0.70799454    -0.38300
N1614       N  0.13027388  0.97498945  0.72344276    -0.37700
C1615       C  0.19251287  0.01229232  0.90527048    -0.04400
C1616       C  0.17477336  0.00214519  0.92341809    -0.01500
C1617       C  0.18337156  0.01330907  0.95470151     0.03500
C1618       C  0.21051159  0.03609537  0.96743489    -0.04400
C1619       C  0.14840064  0.98155252  0.90944948     0.38100
C1620       C  0.16434450  0.00155293  0.97381107     0.36500
N1621       N  0.14912265  0.99204020  0.98921019    -0.38300
N1622       N  0.12741704  0.96526637  0.89845443    -0.37700
C1623       C  0.20661406  0.02176288  0.64013552    -0.04400
C1624       C  0.22356444  0.03230735  0.61850268    -0.01500
C1625       C  0.23121993  0.04417273  0.58969316     0.03500
C1626       C  0.22098930  0.04451947  0.58171143    -0.04400
C1627       C  0.20452894  0.03449618  0.60396120    -0.01500
C1628       C  0.19794837  0.02376734  0.63322381     0.03500
C1629       C  0.23292706  0.03073159  0.62580299     0.38100
C1630       C  0.19340690  0.03422183  0.59652397     0.38100
C1631       C  0.18214295  0.01472861  0.65634527     0.36500
N1632       N  0.16982187  0.00788288  0.67482965    -0.38300
N1633       N  0.18461580  0.03409769  0.59083599    -0.37700
N1634       N  0.24039975  0.02947244  0.63159851    -0.37700
C1635       C  0.87642351  0.84124967  0.93670493    -0.04400
C1636       C  0.88558588  0.85902111  0.92341586    -0.01500
C1637       C  0.89894524  0.87147099  0.89365982     0.03500
C1638       C  0.90339908  0.86637770  0.87715696    -0.04400
C1639       C  0.89312470  0.84763764  0.88984193    -0.01500
C1640       C  0.87981467  0.83522778  0.91940915     0.03500
C1641       C  0.88168982  0.86486934  0.94062187     0.38100
C1642       C  0.89661442  0.84133609  0.87280109     0.38100
C1643       C  0.87089766  0.81730083  0.93268722     0.36500
C1644       C  0.90957039  0.89080212  0.88101283     0.36500
N1645       N  0.86363251  0.80288493  0.94317877    -0.38300
N1646       N  0.91813100  0.90629176  0.87091824    -0.38300
N1647       N  0.89957510  0.83643588  0.85955001    -0.37700
N1648       N  0.87868032  0.86963311  0.95436188    -0.37700
C1649       C  0.94107036  0.90852333  0.61764739    -0.04400
C1650       C  0.92783804  0.90492233  0.60388313    -0.01500
C1651       C  0.91198379  0.88940490  0.57447816     0.03500
C1652       C  0.91033921  0.87851704  0.55794235    -0.04400
C1653       C  0.92501757  0.88361585  0.57057463    -0.01500
C1654       C  0.93969895  0.89788432  0.60066409     0.03500
C1655       C  0.93074402  0.91740306  0.61983949     0.38100
C1656       C  0.92444468  0.87354822  0.55285954     0.38100
C1657       C  0.95171110  0.89984549  0.61484660     0.36500
C1658       C  0.89652805  0.88376026  0.56170708     0.36500
N1659       N  0.96114574  0.90125875  0.62618016    -0.38300
N1660       N  0.88396255  0.87899432  0.55152296    -0.38300
N1661       N  0.92415417  0.86568650  0.53871822    -0.37700
N1662       N  0.93327101  0.92757539  0.63242124    -0.37700
C1663       C  0.04259152  0.92566494  0.73707055    -0.04400
C1664       C  0.03006761  0.91949143  0.71112619    -0.01500
C1665       C  0.02494025  0.92525666  0.71416085     0.03500
C1666       C  0.03299280  0.93789117  0.74305223    -0.04400
C1667       C  0.04652515  0.94498029  0.76855283    -0.01500
C1668       C  0.05110438  0.93870240  0.76562003     0.03500
C1669       C  0.02228682  0.90698901  0.68142966     0.38100
C1670       C  0.05602657  0.95899871  0.79784687     0.38100
C1671       C  0.06444027  0.94547328  0.79213419     0.36500
C1672       C  0.01002259  0.91672633  0.68812892     0.36500
N1673       N  0.07508156  0.95086854  0.81323733    -0.38300
N1674       N  0.99803150  0.90978617  0.66730378    -0.38300
N1675       N  0.06343383  0.97003934  0.82122858    -0.37700
N1676       N  0.01620096  0.89711277  0.65772457    -0.37700
C1677       C  0.48752922  0.62417229  0.93445499    -0.04400
C1678       C  0.47499769  0.62228317  0.93330483    -0.01500
C1679       C  0.47505691  0.62816963  0.90496116     0.03500
C1680       C  0.48707910  0.63536431  0.87695724    -0.04400
C1681       C  0.50153280  0.63933634  0.87902741    -0.01500
C1682       C  0.50184813  0.63388159  0.90777553     0.03500
C1683       C  0.46097662  0.61319578  0.96112992     0.38100
C1684       C  0.51671838  0.64971391  0.85188319     0.38100
C1685       C  0.51692884  0.63831104  0.91002997     0.36500
C1686       C  0.46179989  0.62580050  0.90495912     0.36500
N1687       N  0.52923361  0.64214740  0.91193474    -0.38300
N1688       N  0.45142133  0.62411795  0.90593006    -0.38300
N1689       N  0.52890849  0.65806896  0.83025624    -0.37700
N1690       N  0.44973415  0.60596664  0.98310475    -0.37700
C1691       C  0.47504000  0.60461750  0.55506699    -0.04400
C1692       C  0.49426060  0.63051024  0.56233489    -0.01500
C1693       C  0.49189760  0.63404203  0.59088347     0.03500
C1694       C  0.47168003  0.61260124  0.61346602    -0.04400
C1695       C  0.45766287  0.59012069  0.60961616    -0.01500
C1696       C  0.46053084  0.58705012  0.58116208     0.03500
C1697       C  0.51849827  0.65477430  0.54311786     0.38100
C1698       C  0.43897676  0.56911093  0.63370369     0.38100
C1699       C  0.44875794  0.56593976  0.57866314     0.36500
C1700       C  0.51090756  0.66019549  0.59723915     0.36500
N1701       N  0.43948399  0.54919560  0.57665413    -0.38300
N1702       N  0.52606624  0.68105212  0.60216106    -0.38300
N1703       N  0.42396874  0.55216883  0.65274087    -0.37700
N1704       N  0.53865137  0.67484459  0.52896195    -0.37700
N1705       N  0.47781221  0.16629605  0.23228408    -0.35200
N1706       N  0.47883654  0.16636849  0.20013056    -0.27400
C1707       C  0.50349978  0.19347775  0.19241920    -0.02600
C1708       C  0.52161960  0.20926792  0.21938724     0.06000
C1709       C  0.50188950  0.19335556  0.24198958     0.04100
H1710       H  0.51102539  0.19948190  0.16842162     0.09200
H1711       H  0.50782020  0.19923936  0.26735894     0.08000
C1712       C  0.32934377  0.72826910  0.02800939     0.04100
C1713       C  0.34340538  0.73807347  0.48239487     0.01600
C1714       C  0.33978158  0.74518598  0.48700460    -0.10600
C1715       C  0.32032073  0.73572207  0.99934098     0.04100
C1716       C  0.32527666  0.73504509  0.02820456    -0.10000
H1717       H  0.34004620  0.75052950  0.46656342     0.07200
H1718       H  0.32501381  0.73884950  0.05090902     0.07000
C1719       C  0.52456757  0.19563118  0.25024140    -0.02800
C1720       C  0.53340766  0.20936659  0.22342329     0.06000
C1721       C  0.52606664  0.19559123  0.19864723     0.04100
H1722       H  0.52455364  0.19876767  0.27427039     0.09200
H1723       H  0.52741056  0.19861260  0.17339138     0.08000
C1724       C  0.31428099  0.74108609  0.00027152     0.04100
C1725       C  0.33640948  0.76867734  0.00095976    -0.12100
C1726       C  0.28645909  0.71867453  0.00233412    -0.10000
H1727       H  0.35795582  0.78603780  0.99937403     0.09700
H1728       H  0.26925892  0.69726006  0.00169498     0.07000
C1729       C  0.35080789  0.02948466  0.35147543     0.36500
N1730       N  0.34078697  0.02784529  0.34353441    -0.38300
N1731       N  0.31293939  0.98739148  0.42071432    -0.37700
C1732       C  0.33562934  0.00795175  0.10947143     0.38100
N1733       N  0.28764733  0.95246852  0.05041924    -0.38300
N1734       N  0.32144438  0.99654340  0.13073572    -0.37700
C1735       C  0.10771280  0.47874124  0.27853403     0.38100
C1736       C  0.16234438  0.52080801  0.27099641     0.36500
N1737       N  0.16683706  0.51663574  0.27838863    -0.38300
N1738       N  0.09011640  0.45762178  0.28965356    -0.37700
C1739       C  0.36709934  0.75042974  0.43837443    -0.01500
C1740       C  0.36671799  0.74613595  0.40672633     0.03500
C1741       C  0.39139061  0.77129743  0.46000433     0.38100
C1742       C  0.39053238  0.76248097  0.39582755     0.36500
N1743       N  0.40960709  0.77564255  0.38701247    -0.38300
N1744       N  0.41071364  0.78787876  0.47736203    -0.37700
C1745       C  0.38275334  0.77204997  0.05850840     0.36500
N1746       N  0.40342784  0.79300755  0.04580200    -0.38300
N1747       N  0.44385946  0.12373424  0.74560528    -0.35200
N1748       N  0.44626568  0.12678437  0.71366644    -0.27400
C1749       C  0.46809274  0.15339462  0.70966519    -0.02600
C1750       C  0.48571190  0.16878866  0.73706721     0.06000
C1751       C  0.46446043  0.14869440  0.75905581     0.04100
H1752       H  0.47666296  0.16218644  0.68612674     0.09200
H1753       H  0.46938239  0.15275000  0.78462952     0.08000
C1754       C  0.33672311  0.72919289  0.53946357     0.04100
C1755       C  0.32377989  0.72303995  0.96965541     0.01600
C1756       C  0.31969469  0.72983715  0.97006314    -0.10600
C1757       C  0.33272318  0.74242883  0.51697969     0.04100
C1758       C  0.33160486  0.73485926  0.54323376    -0.10000
H1759       H  0.31540754  0.72990805  0.94773980     0.07200
H1760       H  0.32585458  0.73248219  0.56639002     0.07000
C1761       C  0.49812902  0.16321938  0.76044021    -0.02800
C1762       C  0.50364055  0.17570204  0.73693851     0.06000
C1763       C  0.50129358  0.16745506  0.70896965     0.04100
H1764       H  0.49542660  0.16255537  0.78545971     0.09200
H1765       H  0.50168640  0.17090181  0.68492121     0.08000
C1766       C  0.32334826  0.74429336  0.51955966     0.04100
C1767       C  0.34259911  0.77004131  0.51601120    -0.12100
C1768       C  0.29463401  0.71982621  0.52189149    -0.10000
H1769       H  0.36478006  0.78888301  0.51384649     0.09700
H1770       H  0.27958064  0.69968225  0.52367391     0.07000
C1771       C  0.31922244  0.98475426  0.83442662     0.36500
N1772       N  0.30352050  0.97398526  0.81614499    -0.38300
N1773       N  0.28360401  0.95222805  0.90927151    -0.37700
C1774       C  0.33949360  0.01399394  0.58096471     0.38100
N1775       N  0.30745396  0.98072065  0.50160937    -0.38300
N1776       N  0.32645519  0.00828984  0.59234496    -0.37700
C1777       C  0.08311229  0.46134720  0.77232106     0.38100
C1778       C  0.13300133  0.49561131  0.76906405     0.36500
N1779       N  0.13335505  0.48770255  0.77883455    -0.38300
N1780       N  0.06321363  0.43951900  0.78350250    -0.37700
C1781       C  0.34431858  0.73135980  0.92638104    -0.01500
C1782       C  0.34112749  0.72252992  0.89802184     0.03500
C1783       C  0.37187424  0.75792983  0.94255299     0.38100
C1784       C  0.36544434  0.74006170  0.88525616     0.36500
N1785       N  0.38484948  0.75410223  0.87491240    -0.38300
N1786       N  0.39384392  0.77910279  0.95549644    -0.37700
C1787       C  0.38469752  0.76414751  0.57183018     0.36500
N1788       N  0.40703183  0.78624610  0.56252644    -0.38300
N1789       N  0.97364755  0.64967704  0.18861498    -0.26300
N1790       N  0.98055805  0.64801406  0.20688392    -0.34200
C1791       C  0.99172290  0.65120444  0.18804340     0.02000
C1792       C  0.99119662  0.65409194  0.15631731     0.08000
C1793       C  0.97939911  0.65282578  0.15805152    -0.05100
H1794       H  0.99991157  0.65170119  0.19732499     0.08700
H1795       H  0.97422611  0.65305959  0.13820686     0.09900
Cu1796     Cu  0.97574233  0.64173822  0.25873017     0.44200
Cu1797     Cu  0.95596876  0.64791571  0.20538097     0.42000
Cu1798     Cu  0.94768537  0.63913972  0.30837303     0.43900
N1799       N  0.97410691  0.64129238  0.31122338    -0.33700
N1800       N  0.96433110  0.63998190  0.32842860    -0.28000
C1801       C  0.96643802  0.63940225  0.35970986    -0.04100
C1802       C  0.97853267  0.64101760  0.36306835     0.08100
C1803       C  0.98343516  0.64265171  0.33164588     0.01900
H1804       H  0.95859234  0.63685308  0.37856933     0.09600
H1805       H  0.99338913  0.64499352  0.32379442     0.08700
C1806       C  0.97457303  0.61522140  0.48396343     0.04100
C1807       C  0.99254728  0.63323518  0.51142311    -0.12100
C1808       C  0.99116945  0.63442166  0.03051644     0.01600
C1809       C  0.96801819  0.60616361  0.02668416    -0.10600
C1810       C  0.93686599  0.57497806  0.51790222     0.04100
C1811       C  0.94760918  0.58609582  0.48740379    -0.10000
H1812       H  0.01404136  0.65540842  0.50788038     0.09700
H1813       H  0.95638853  0.59317733  0.04740941     0.07200
H1814       H  0.93371579  0.57207005  0.46634935     0.07000
N1815       N  0.48043265  0.91655918  0.32008282    -0.26300
N1816       N  0.46114020  0.90441459  0.30537646    -0.34200
C1817       C  0.44175521  0.88904142  0.32663021     0.02000
C1818       C  0.44939083  0.89189209  0.35623727     0.08000
C1819       C  0.47422191  0.90975883  0.35106995    -0.05100
H1820       H  0.42292966  0.87591263  0.32071614     0.08700
H1821       H  0.48648836  0.91665462  0.36831765     0.09900
Cu1822     Cu  0.46235912  0.90918761  0.25680655     0.44200
Cu1823     Cu  0.51135347  0.93757447  0.29637328     0.42000
Cu1824     Cu  0.51522609  0.94578798  0.21151020     0.43900
N1825       N  0.46793137  0.91718311  0.20833057    -0.33700
N1826       N  0.48793818  0.93137720  0.19204608    -0.28000
C1827       C  0.48310168  0.92873429  0.16056772    -0.04100
C1828       C  0.45875778  0.91188892  0.15657528     0.08100
C1829       C  0.44980601  0.90506274  0.18750690     0.01900
H1830       H  0.49392659  0.93493050  0.14168625     0.09600
H1831       H  0.42962068  0.88936488  0.19393249     0.08700
N1832       N  0.53426021  0.95112606  0.23475535    -0.35200
N1833       N  0.53315815  0.94851353  0.26602037    -0.27400
C1834       C  0.54336339  0.94867175  0.27296340    -0.02600
C1835       C  0.55108909  0.95131606  0.24468662     0.06000
C1836       C  0.54513445  0.95292729  0.22095239     0.04100
H1837       H  0.54260659  0.94438696  0.29629009     0.09200
H1838       H  0.54636161  0.95297068  0.19528368     0.08000
C1839       C  0.39264157  0.84041348  0.47739314     0.04100
C1840       C  0.40809976  0.86209045  0.00753012    -0.12100
C1841       C  0.39343734  0.84717821  0.03597620     0.01600
C1842       C  0.36607825  0.81758303  0.03395479    -0.10600
C1843       C  0.35475055  0.80332906  0.00464358     0.04100
C1844       C  0.36637119  0.81129818  0.48025739    -0.10000
H1845       H  0.42959835  0.88485987  0.00869518     0.09700
H1846       H  0.35475432  0.80580758  0.05567095     0.07200
H1847       H  0.35598652  0.79816162  0.45930959     0.07000
N1848       N  0.73388324  0.05254103  0.17446496    -0.26300
N1849       N  0.75173427  0.07527548  0.19020794    -0.34200
C1850       C  0.76470917  0.09317105  0.16883008     0.02000
C1851       C  0.75445873  0.08113987  0.13819918     0.08000
C1852       C  0.73515364  0.05549579  0.14274686    -0.05100
H1853       H  0.77871354  0.11241999  0.17526975     0.08700
H1854       H  0.72124715  0.03912344  0.12457885     0.09900
Cu1855     Cu  0.75397770  0.07924859  0.23994110     0.44200
Cu1856     Cu  0.70219900  0.01495128  0.19572615     0.42000
Cu1857     Cu  0.69634779  0.01454367  0.27929908     0.43900
N1858       N  0.74800123  0.07555032  0.28886291    -0.33700
N1859       N  0.72688720  0.05155778  0.30325878    -0.28000
C1860       C  0.72597519  0.05424412  0.33347754    -0.04100
C1861       C  0.74756225  0.08124786  0.33849342     0.08100
C1862       C  0.76126321  0.09429850  0.30975804     0.01900
H1863       H  0.70968169  0.03725487  0.34991756     0.09600
H1864       H  0.77833441  0.11517809  0.30383953     0.08700
N1865       N  0.66204053  0.97969478  0.24863818    -0.35200
N1866       N  0.66396150  0.97911340  0.21799131    -0.27400
C1867       C  0.63927651  0.95836767  0.20243295    -0.02600
C1868       C  0.62151226  0.94649619  0.22381179     0.06000
C1869       C  0.63647487  0.95992660  0.25308991     0.04100
H1870       H  0.63647799  0.95560385  0.17656395     0.09200
H1871       H  0.63142292  0.95940424  0.27454457     0.08000
C1872       C  0.77532605  0.12223955  0.99692204    -0.12100
H1873       H  0.77592940  0.11462527  0.99353566     0.09700
N1874       N  0.90241968  0.58290449  0.30477819    -0.26300
N1875       N  0.87903486  0.55729969  0.29143473    -0.34200
C1876       C  0.85981247  0.53810595  0.31386848     0.02000
C1877       C  0.87148267  0.55225794  0.34287104     0.08000
C1878       C  0.89819074  0.58042511  0.33617409    -0.05100
H1879       H  0.83942907  0.51561539  0.30959687     0.08700
H1880       H  0.91382533  0.59776897  0.35357671     0.09900
Cu1881     Cu  0.87403504  0.55018699  0.24352886     0.44200
Cu1882     Cu  0.94078274  0.62081762  0.28149524     0.42000
Cu1883     Cu  0.94428951  0.62523634  0.22868852     0.43900
N1884       N  0.88440987  0.56559249  0.20050178    -0.33700
N1885       N  0.90931762  0.59275345  0.19541719    -0.28000
C1886       C  0.90956153  0.59576032  0.16433578    -0.04100
C1887       C  0.88401026  0.56938671  0.14919272     0.08100
C1888       C  0.86851047  0.55077947  0.17306757     0.01900
H1889       H  0.92796943  0.61554745  0.15258831     0.09600
H1890       H  0.84836932  0.52825682  0.17000832     0.08700
N1891       N  0.98629049  0.66888136  0.24601729    -0.35200
N1892       N  0.98388504  0.66632843  0.27659102    -0.27400
C1893       C  0.86459925  0.53715681  0.01879325     0.04100
C1894       C  0.86051854  0.52279797  0.01795204    -0.12100
C1895       C  0.86088070  0.51784671  0.98887359     0.01600
C1896       C  0.83850945  0.50210173  0.48111435    -0.10600
C1897       C  0.83964337  0.51346062  0.47231872     0.04100
C1898       C  0.86717476  0.54485973  0.98980241    -0.10000
H1899       H  0.86187634  0.51979468  0.04025033     0.09700
H1900       H  0.83917060  0.49694625  0.46248723     0.07200
H1901       H  0.87298347  0.55822267  0.99054950     0.07000
C1902       C  0.88539165  0.51328025  0.99822738     0.04100
C1903       C  0.89408114  0.52403632  0.51750139    -0.12100
C1904       C  0.90632366  0.54505585  0.52061337     0.01600
C1905       C  0.90718521  0.55281882  0.98844006    -0.10600
C1906       C  0.87801483  0.52443869  0.98918843     0.04100
C1907       C  0.86698713  0.50451202  0.99397885    -0.10000
H1908       H  0.90738296  0.52970848  0.51624385     0.09700
H1909       H  0.91559283  0.56821073  0.98546861     0.07200
H1910       H  0.84437431  0.48246371  0.99487423     0.07000
N1911       N  0.88270053  0.46103257  0.20811033    -0.26300
N1912       N  0.85952219  0.44397754  0.21750380    -0.34200
C1913       C  0.84817676  0.43881996  0.19259830     0.02000
C1914       C  0.86534357  0.45370433  0.16642153     0.08000
C1915       C  0.88720955  0.46782970  0.17767489    -0.05100
H1916       H  0.82861540  0.42485020  0.19338090     0.08700
H1917       H  0.90508955  0.48184069  0.16463382     0.09900
Cu1918     Cu  0.84616828  0.43022507  0.26454792     0.44200
Cu1919     Cu  0.90525395  0.47121323  0.23422472     0.42000
Cu1920     Cu  0.88115613  0.44194490  0.31020154     0.43900
N1921       N  0.84390599  0.42599826  0.31418336    -0.33700
N1922       N  0.85627693  0.42987524  0.33007285    -0.28000
C1923       C  0.85418989  0.42944986  0.36177307    -0.04100
C1924       C  0.83997505  0.42525559  0.36632089     0.08100
C1925       C  0.83363066  0.42302789  0.33567174     0.01900
H1926       H  0.86429752  0.43414184  0.38021008     0.09600
H1927       H  0.82431599  0.42166998  0.32957078     0.08700
N1928       N  0.91180889  0.46223577  0.28773004    -0.35200
N1929       N  0.92094473  0.47342187  0.25948805    -0.27400
C1930       C  0.94159666  0.48625345  0.25129466    -0.02600
C1931       C  0.94592746  0.48329147  0.27581397     0.06000
C1932       C  0.92662357  0.46788592  0.29855614     0.04100
H1933       H  0.95295300  0.49734223  0.22935931     0.09200
H1934       H  0.92415074  0.46201409  0.32165619     0.08000
C1935       C  0.85788064  0.46400857  0.03714526     0.04100
C1936       C  0.87098308  0.48565057  0.03305461    -0.12100
C1937       C  0.87337764  0.49196823  0.00230396     0.01600
C1938       C  0.84448401  0.46203163  0.48597291    -0.10600
C1939       C  0.83455008  0.44275670  0.48568158     0.04100
C1940       C  0.84750969  0.44902047  0.00975511    -0.10000
H1941       H  0.87957351  0.49779116  0.05372848     0.09700
H1942       H  0.84829084  0.46939210  0.46351666     0.07200
H1943       H  0.83782351  0.43262302  0.01235636     0.07000
N1944       N  0.12330366  0.58696881  0.32416352    -0.26300
N1945       N  0.14768565  0.60848458  0.31029333    -0.34200
C1946       C  0.16727621  0.62372559  0.33268940     0.02000
C1947       C  0.15459575  0.61124461  0.36198995     0.08000
C1948       C  0.12668353  0.58788897  0.35555888    -0.05100
H1949       H  0.18940086  0.64321804  0.32830238     0.08700
H1950       H  0.11031167  0.57339888  0.37274528     0.09900
Cu1951     Cu  0.15392722  0.61779469  0.26232058     0.44200
Cu1952     Cu  0.08790214  0.56059270  0.30230134     0.42000
Cu1953     Cu  0.09751027  0.57929941  0.22243395     0.43900
N1954       N  0.15387390  0.62176302  0.21391671    -0.33700
N1955       N  0.13282713  0.60714190  0.19911211    -0.28000
C1956       C  0.13804953  0.61280931  0.16768203    -0.04100
C1957       C  0.16370340  0.63201260  0.16229351     0.08100
C1958       C  0.17316253  0.63730508  0.19231809     0.01900
H1959       H  0.12369657  0.60285165  0.14984357     0.09600
H1960       H  0.19232785  0.65089509  0.19792845     0.08700
N1961       N  0.06537686  0.55400281  0.25159138    -0.35200
N1962       N  0.06132980  0.54647989  0.28045886    -0.27400
C1963       C  0.04033886  0.53213490  0.29395495    -0.02600
C1964       C  0.03084294  0.53069952  0.27252771     0.06000
C1965       C  0.04710501  0.54468386  0.24594576     0.04100
H1966       H  0.03362742  0.52473878  0.31819437     0.09200
H1967       H  0.04639585  0.54868649  0.22453453     0.08000
C1968       C  0.21195846  0.66930146  0.03775964     0.04100
C1969       C  0.24055404  0.69319461  0.03621234    -0.12100
C1970       C  0.25140883  0.70003371  0.00714465     0.01600
C1971       C  0.24003019  0.68240829  0.48872813    -0.10600
C1972       C  0.21048896  0.65584537  0.48683205     0.04100
C1973       C  0.19461988  0.65307585  0.00945671    -0.10000
H1974       H  0.25404600  0.70578313  0.05788734     0.09700
H1975       H  0.25178420  0.69356007  0.46696714     0.07200
H1976       H  0.17260716  0.63475306  0.01048229     0.07000
C1977       C  0.33093186  0.77402970  0.00425819     0.01600
C1978       C  0.30313358  0.75159792  0.00718973    -0.10600
C1979       C  0.28080471  0.72383859  0.00585461     0.04100
H1980       H  0.29884598  0.75566879  0.00973914     0.07200
C1981       C  0.19975329  0.66001699  0.06962314    -0.04400
C1982       C  0.18963665  0.66038430  0.07739540    -0.01500
C1983       C  0.17856772  0.65197985  0.10789451     0.03500
C1984       C  0.17658046  0.64215674  0.13055758    -0.04400
C1985       C  0.18629569  0.64135690  0.12239000    -0.01500
C1986       C  0.19822450  0.65067440  0.09238360     0.03500
C1987       C  0.19098782  0.66980344  0.05411673     0.38100
C1988       C  0.18284289  0.62965913  0.14410142     0.38100
C1989       C  0.20833018  0.64996111  0.08460327     0.36500
C1990       C  0.17016090  0.65442097  0.11623090     0.36500
N1991       N  0.21653143  0.64954427  0.07845845    -0.38300
N1992       N  0.16358730  0.65651171  0.12283853    -0.38300
N1993       N  0.18003017  0.62025108  0.16131175    -0.37700
N1994       N  0.19192535  0.67716470  0.03544691    -0.37700
C1995       C  0.19533412  0.64347443  0.45517522    -0.04400
C1996       C  0.17892193  0.63709802  0.44991186    -0.01500
C1997       C  0.16521603  0.62611403  0.41969829     0.03500
C1998       C  0.16856881  0.62229562  0.39406560    -0.04400
C1999       C  0.18512536  0.62885150  0.39927823    -0.01500
C2000       C  0.19764036  0.63848790  0.42996670     0.03500
C2001       C  0.17646352  0.64226890  0.47543415     0.38100
C2002       C  0.18882646  0.62510866  0.37326563     0.38100
C2003       C  0.21142997  0.64161564  0.43610639     0.36500
C2004       C  0.14843598  0.61967521  0.41488288     0.36500
N2005       N  0.22190645  0.64353177  0.44108700    -0.38300
N2006       N  0.13493856  0.61441308  0.41123744    -0.38300
N2007       N  0.19198873  0.62236433  0.35244886    -0.37700
N2008       N  0.17439299  0.64624502  0.49587724    -0.37700
C2009       C  0.96802936  0.49582966  0.27803055    -0.04400
C2010       C  0.96085215  0.47896086  0.28464668    -0.01500
C2011       C  0.98171396  0.49068022  0.28461166     0.03500
C2012       C  0.00974504  0.51921115  0.27761764    -0.04400
C2013       C  0.01728640  0.53650353  0.27347348    -0.01500
C2014       C  0.99647516  0.52480871  0.27315450     0.03500
C2015       C  0.93175630  0.44919630  0.28974638     0.38100
C2016       C  0.04671213  0.56662930  0.27092923     0.38100
C2017       C  0.00454284  0.54281646  0.26816405     0.36500
C2018       C  0.97411117  0.47314412  0.29091347     0.36500
N2019       N  0.01097959  0.55716551  0.26397847    -0.38300
N2020       N  0.96803387  0.45916125  0.29620971    -0.38300
N2021       N  0.07019060  0.59069069  0.26931443    -0.37700
N2022       N  0.90854509  0.42543888  0.29374847    -0.37700
C2023       C  0.83821576  0.42924784  0.39712370    -0.04400
C2024       C  0.81173409  0.40728825  0.40903997    -0.01500
C2025       C  0.81024931  0.41141247  0.43812910     0.03500
C2026       C  0.83524463  0.43741762  0.45547314    -0.04400
C2027       C  0.86167150  0.45901479  0.44412061    -0.01500
C2028       C  0.86319885  0.45511563  0.41488941     0.03500
C2029       C  0.78605789  0.38019899  0.39186372     0.38100
C2030       C  0.88738281  0.48522360  0.46291344     0.38100
C2031       C  0.89063298  0.47811552  0.40281469     0.36500
C2032       C  0.78310676  0.38901739  0.45017494     0.36500
N2033       N  0.91257034  0.49654035  0.39331430    -0.38300
N2034       N  0.76141849  0.37110967  0.45978299    -0.38300
N2035       N  0.90773903  0.50597996  0.47810487    -0.37700
N2036       N  0.76563069  0.35855422  0.37818846    -0.37700
C2037       C  0.86135077  0.45420397  0.13305927    -0.04400
C2038       C  0.85066548  0.45423506  0.12778758    -0.01500
C2039       C  0.84735713  0.45506909  0.09623760     0.03500
C2040       C  0.85755675  0.45903597  0.06987690    -0.04400
C2041       C  0.86913007  0.45999587  0.07524966    -0.01500
C2042       C  0.86938392  0.45585594  0.10613334     0.03500
C2043       C  0.84477718  0.45533545  0.15472449     0.38100
C2044       C  0.88231147  0.46680829  0.04939983     0.38100
C2045       C  0.87746962  0.45276123  0.10956816     0.36500
C2046       C  0.83328106  0.45169475  0.09099662     0.36500
N2047       N  0.88394924  0.45031499  0.11191079    -0.38300
N2048       N  0.82195158  0.44888621  0.08685345    -0.38300
N2049       N  0.89294749  0.47241029  0.02881074    -0.37700
N2050       N  0.84039293  0.45660251  0.17608812    -0.37700
C2051       C  0.86182190  0.54075768  0.37518368    -0.04400
C2052       C  0.87799265  0.54896296  0.39431608    -0.01500
C2053       C  0.87178466  0.54172108  0.42650423     0.03500
C2054       C  0.84691608  0.52275324  0.43884491    -0.04400
C2055       C  0.82978786  0.51330534  0.41922242    -0.01500
C2056       C  0.83765498  0.52289153  0.38760854     0.03500
C2057       C  0.90023681  0.56368559  0.38043343     0.38100
C2058       C  0.80437063  0.49404791  0.43162476     0.38100
C2059       C  0.89240914  0.55574229  0.44727500     0.36500
N2060       N  0.90968543  0.56792967  0.46335695    -0.38300
N2061       N  0.91735283  0.57464908  0.36903110    -0.37700
C2062       C  0.88011045  0.56308811  0.11479372    -0.04400
C2063       C  0.85818350  0.54700517  0.09520403    -0.01500
C2064       C  0.85343826  0.53914056  0.06319904     0.03500
C2065       C  0.87135887  0.54835349  0.05045309    -0.04400
C2066       C  0.89426082  0.56590993  0.06974810    -0.01500
C2067       C  0.89742716  0.57158422  0.10216756     0.03500
C2068       C  0.91466526  0.57806519  0.05662782     0.38100
C2069       C  0.91613534  0.58300956  0.12330502     0.36500
C2070       C  0.82941223  0.52052584  0.04402797     0.36500
N2071       N  0.93010246  0.59095091  0.14026887    -0.38300
N2072       N  0.93151073  0.58832828  0.04696844    -0.37700
C2073       C  0.60034093  0.93506433  0.21685751    -0.04400
C2074       C  0.60543038  0.94747037  0.19384565    -0.01500
C2075       C  0.59294812  0.94554040  0.19665436     0.03500
C2076       C  0.57538129  0.93128062  0.22224569    -0.04400
C2077       C  0.56684668  0.91533906  0.24205433    -0.01500
C2078       C  0.57889055  0.91677568  0.23888411     0.03500
C2079       C  0.62441145  0.96343190  0.16811040     0.38100
C2080       C  0.59930915  0.95949514  0.17421409     0.36500
N2081       N  0.60429609  0.97054612  0.15633379    -0.38300
N2082       N  0.63925107  0.97596139  0.14714390    -0.37700
C2083       C  0.75197329  0.09204475  0.36708024    -0.04400
C2084       C  0.72983696  0.07779768  0.37702531    -0.01500
C2085       C  0.73252825  0.08567117  0.40638822     0.03500
C2086       C  0.75787614  0.10864708  0.42547687    -0.04400
C2087       C  0.70449159  0.05542563  0.35657386     0.38100
C2088       C  0.70865486  0.06921167  0.41755206     0.36500
N2089       N  0.68951630  0.05595253  0.42639551    -0.38300
N2090       N  0.68445600  0.03780068  0.34002614    -0.37700
C2091       C  0.75867181  0.09102435  0.10836397    -0.04400
C2092       C  0.78626065  0.11881942  0.09869520    -0.01500
C2093       C  0.79036560  0.12897915  0.07197036     0.03500
C2094       C  0.76698937  0.11156937  0.05496664    -0.04400
C2095       C  0.73945189  0.08368572  0.06403380    -0.01500
C2096       C  0.73526767  0.07336322  0.09043559     0.03500
C2097       C  0.81046220  0.13682983  0.11580305     0.38100
C2098       C  0.71534844  0.06562521  0.04621412     0.38100
C2099       C  0.70672152  0.04472960  0.09936281     0.36500
N2100       N  0.68371894  0.02169771  0.10578833    -0.38300
N2101       N  0.69614060  0.05124902  0.03208045    -0.37700
N2102       N  0.82978625  0.15120009  0.12940121    -0.37700
C2103       C  0.40646485  0.85295942  0.44603786    -0.04400
C2104       C  0.40853523  0.86376363  0.42741139    -0.01500
C2105       C  0.42196787  0.87594329  0.39775910     0.03500
C2106       C  0.43355919  0.87747456  0.38654937    -0.04400
C2107       C  0.43040381  0.86555890  0.40487600    -0.01500
C2108       C  0.41718334  0.85363958  0.43456377     0.03500
C2109       C  0.39655536  0.86207056  0.43877593     0.38100
C2110       C  0.43972585  0.86446135  0.39283386     0.38100
C2111       C  0.41482735  0.84224937  0.45354206     0.36500
C2112       C  0.42423429  0.88733931  0.37931647     0.36500
N2113       N  0.41293057  0.83315193  0.46863165    -0.38300
N2114       N  0.42576868  0.89619595  0.36462349    -0.38300
N2115       N  0.44711639  0.86352511  0.38335903    -0.37700
N2116       N  0.38690396  0.86059750  0.44797673    -0.37700
C2117       C  0.43988707  0.89391987  0.12723679    -0.04400
C2118       C  0.43765391  0.90010034  0.10569634    -0.01500
C2119       C  0.42185139  0.88440247  0.07623939     0.03500
C2120       C  0.40834045  0.86251745  0.06809822    -0.04400
C2121       C  0.41026192  0.85612168  0.09028119    -0.01500
C2122       C  0.42541270  0.87133959  0.11985991     0.03500
C2123       C  0.45182344  0.92275993  0.11373484     0.38100
C2124       C  0.39804956  0.83491837  0.08222833     0.38100
C2125       C  0.42650216  0.86400510  0.14271428     0.36500
C2126       C  0.41968939  0.89093722  0.05426234     0.36500
N2127       N  0.42740879  0.85824449  0.16107637    -0.38300
N2128       N  0.41812198  0.89625989  0.03657106    -0.38300
N2129       N  0.38828723  0.81798548  0.07599252    -0.37700
N2130       N  0.46303988  0.94078088  0.12011257    -0.37700
C2131       C  0.56809012  0.93528040  0.22970811    -0.04400
C2132       C  0.54294303  0.91627065  0.21691122    -0.01500
C2133       C  0.53723737  0.92135123  0.22216454     0.03500
C2134       C  0.55688026  0.94571590  0.23993040    -0.04400
C2135       C  0.58176604  0.96440339  0.25340729    -0.01500
C2136       C  0.58749406  0.95934397  0.24801483     0.03500
C2137       C  0.52327743  0.89182005  0.19775641     0.38100
C2138       C  0.60172969  0.98910430  0.27229141     0.38100
C2139       C  0.61373624  0.97927591  0.26050617     0.36500
C2140       C  0.51073301  0.90103962  0.21004693     0.36500
N2141       N  0.63470348  0.99517345  0.27018597    -0.38300
N2142       N  0.48954811  0.88481002  0.20053782    -0.38300
N2143       N  0.61764922  0.00877300  0.28746759    -0.37700
N2144       N  0.50766571  0.87237555  0.18238219    -0.37700
C2145       C  0.98062788  0.62611105  0.45319296    -0.04400
C2146       C  0.98327263  0.63928215  0.45280159    -0.01500
C2147       C  0.98632589  0.64734348  0.42364271     0.03500
C2148       C  0.98240687  0.63856349  0.39377610    -0.04400
C2149       C  0.97975027  0.62528620  0.39424817    -0.01500
C2150       C  0.97994091  0.62012956  0.42380263     0.03500
C2151       C  0.98008593  0.64219619  0.48199376     0.38100
C2152       C  0.97494620  0.61503976  0.36486165     0.38100
C2153       C  0.97839573  0.60766689  0.42402327     0.36500
C2154       C  0.99401033  0.66516663  0.42499235     0.36500
N2155       N  0.97720678  0.59776968  0.42424858    -0.38300
N2156       N  0.00023401  0.67945469  0.42651234    -0.38300
N2157       N  0.97089033  0.60647896  0.34176997    -0.37700
N2158       N  0.97708066  0.64419451  0.50494818    -0.37700
C2159       C  0.99801504  0.64548127  0.06332785    -0.04400
C2160       C  0.00239548  0.66021493  0.06730361    -0.01500
C2161       C  0.00493878  0.66694179  0.09830425     0.03500
C2162       C  0.99821568  0.65502892  0.12579096    -0.04400
C2163       C  0.99588187  0.64212380  0.12234541    -0.01500
C2164       C  0.99728080  0.63879174  0.09160661     0.03500
C2165       C  0.00259875  0.66730275  0.04017368     0.38100
C2166       C  0.99135709  0.63144340  0.14976778     0.38100
C2167       C  0.99757434  0.62803660  0.08923673     0.36500
C2168       C  0.01541465  0.68702121  0.10171597     0.36500
N2169       N  0.99758954  0.61926336  0.08739055    -0.38300
N2170       N  0.02396721  0.70318597  0.10427326    -0.38300
N2171       N  0.98786139  0.62278103  0.17113534    -0.37700
N2172       N  0.00312728  0.67355986  0.01923171    -0.37700
N2173       N  0.98704839  0.66536669  0.68287407    -0.26300
N2174       N  0.98751229  0.65809573  0.70395574    -0.34200
C2175       C  0.99419051  0.65570546  0.68857470     0.02000
C2176       C  0.99693743  0.66032211  0.65617105     0.08000
C2177       C  0.99251580  0.66667301  0.65378663    -0.05100
H2178       H  0.99735108  0.65145672  0.70069410     0.08700
H2179       H  0.99302600  0.67177201  0.63248401     0.09900
Cu2180     Cu  0.98063731  0.65238424  0.75553479     0.44200
Cu2181     Cu  0.97992212  0.67502404  0.69513980     0.42000
Cu2182     Cu  0.97544664  0.67435121  0.79814235     0.43900
N2183       N  0.98219149  0.65668427  0.80734750    -0.33700
N2184       N  0.98171440  0.66524465  0.82259146    -0.28000
C2185       C  0.98634539  0.66790550  0.85431727    -0.04100
C2186       C  0.98938901  0.66034208  0.85946570     0.08100
C2187       C  0.98659105  0.65340407  0.82920910     0.01900
H2188       H  0.98755172  0.67499044  0.87224029     0.09600
H2189       H  0.98754443  0.64627790  0.82338133     0.08700
C2190       C  0.99070874  0.63571304  0.97198334     0.04100
C2191       C  0.00354891  0.64952049  0.00242205    -0.12100
C2192       C  0.98182326  0.62269911  0.54250405     0.01600
C2193       C  0.95342915  0.59322054  0.54495592    -0.10600
C2194       C  0.95615098  0.59272050  0.99618056     0.04100
C2195       C  0.96835735  0.60804685  0.96892424    -0.10000
H2196       H  0.02143560  0.67122978  0.00407841     0.09700
H2197       H  0.94338639  0.58419869  0.56782577     0.07200
H2198       H  0.95776966  0.59715369  0.94560902     0.07000
N2199       N  0.48335091  0.92187867  0.82108022    -0.26300
N2200       N  0.46397590  0.90973623  0.80673329    -0.34200
C2201       C  0.44663543  0.89711537  0.82909013     0.02000
C2202       C  0.45562393  0.90163934  0.85886880     0.08000
C2203       C  0.47926497  0.91786630  0.85273700    -0.05100
H2204       H  0.42802966  0.88438377  0.82380901     0.08700
H2205       H  0.49178820  0.92500808  0.86977000     0.09900
Cu2206     Cu  0.46152090  0.91010169  0.75721674     0.44200
Cu2207     Cu  0.51091499  0.93818173  0.79767352     0.42000
Cu2208     Cu  0.51615546  0.94829891  0.71542920     0.43900
N2209       N  0.46737795  0.91732923  0.70810016    -0.33700
N2210       N  0.48947774  0.93402841  0.69404663    -0.28000
C2211       C  0.48600877  0.93184704  0.66212586    -0.04100
C2212       C  0.46006194  0.91217576  0.65531203     0.08100
C2213       C  0.44889965  0.90358473  0.68510988     0.01900
H2214       H  0.49902549  0.94015068  0.64502272     0.09600
H2215       H  0.42755841  0.88612993  0.68949424     0.08700
N2216       N  0.52992732  0.94762812  0.73564343    -0.35200
N2217       N  0.52842186  0.94423869  0.76655045    -0.27400
C2218       C  0.53663689  0.94221004  0.77196529    -0.02600
C2219       C  0.54340683  0.94421517  0.74284724     0.06000
C2220       C  0.53885191  0.94759733  0.72037190     0.04100
H2221       H  0.53666564  0.93850064  0.79510141     0.09200
H2222       H  0.54110502  0.94918362  0.69472310     0.08000
C2223       C  0.39592110  0.84768612  0.97779044     0.04100
C2224       C  0.40737798  0.85776831  0.50502342    -0.12100
C2225       C  0.39594987  0.84601823  0.53539131     0.01600
C2226       C  0.36940426  0.81677729  0.53781111    -0.10600
C2227       C  0.35492330  0.79946800  0.51047105     0.04100
C2228       C  0.36942846  0.81837621  0.97658286    -0.10000
H2229       H  0.42840693  0.88040139  0.50312877     0.09700
H2230       H  0.36138379  0.80784337  0.56136259     0.07200
H2231       H  0.36104885  0.80744745  0.95404540     0.07000
N2232       N  0.75785263  0.08156231  0.67803486    -0.26300
N2233       N  0.76982252  0.10079452  0.69159668    -0.34200
C2234       C  0.77835367  0.11493165  0.66818003     0.02000
C2235       C  0.77141121  0.10403495  0.63857061     0.08000
C2236       C  0.75914331  0.08345551  0.64602759    -0.05100
H2237       H  0.78675732  0.13029858  0.67233372     0.08700
H2238       H  0.74903503  0.06875090  0.62936849     0.09900
Cu2239     Cu  0.77047780  0.10414431  0.74112713     0.44200
Cu2240     Cu  0.72890354  0.04555432  0.69969263     0.42000
Cu2241     Cu  0.71821736  0.04022029  0.77965899     0.43900
N2242       N  0.76674237  0.09985676  0.79092609    -0.33700
N2243       N  0.74849762  0.07680102  0.80438813    -0.28000
C2244       C  0.74941792  0.07920175  0.83622937    -0.04100
C2245       C  0.76916778  0.10496705  0.84342900     0.08100
C2246       C  0.77982541  0.11764608  0.81421800     0.01900
H2247       H  0.73514838  0.06250001  0.85263919     0.09600
H2248       H  0.79461328  0.13745143  0.81002412     0.08700
N2249       N  0.68489060  0.00638727  0.74777808    -0.35200
N2250       N  0.68888504  0.00819718  0.71720916    -0.27400
C2251       C  0.66538585  0.98888132  0.69980848    -0.02600
C2252       C  0.64587063  0.97468260  0.72038918     0.06000
C2253       C  0.65883329  0.98596086  0.75068870     0.04100
H2254       H  0.66464805  0.98900995  0.67392598     0.09200
H2255       H  0.65205357  0.98347969  0.77209617     0.08000
C2256       C  0.76506371  0.11450553  0.48543967    -0.12100
H2257       H  0.76687357  0.10799070  0.48349381     0.09700
N2258       N  0.91967523  0.61004557  0.80048142    -0.26300
N2259       N  0.89637289  0.58417232  0.78828689    -0.34200
C2260       C  0.87770483  0.56569263  0.81126122     0.02000
C2261       C  0.88975418  0.58039889  0.83987583     0.08000
C2262       C  0.91619035  0.60844605  0.83202161    -0.05100
H2263       H  0.85860131  0.54348453  0.80836065     0.08700
H2264       H  0.93290547  0.62620316  0.84896627     0.09900
Cu2265     Cu  0.89289733  0.57526228  0.74309799     0.44200
Cu2266     Cu  0.95781850  0.64623391  0.77607465     0.42000
Cu2267     Cu  0.96031019  0.64684924  0.72074904     0.43900
N2268       N  0.90131691  0.58604569  0.69691561    -0.33700
N2269       N  0.92500795  0.61231487  0.68844708    -0.28000
C2270       C  0.92235534  0.61210861  0.65682973    -0.04100
C2271       C  0.89568855  0.58426815  0.64510217     0.08100
C2272       C  0.88325466  0.56856270  0.67148604     0.01900
H2273       H  0.93869123  0.63087591  0.64354006     0.09600
H2274       H  0.86253709  0.54591843  0.67226990     0.08700
N2275       N  0.00432165  0.68932751  0.73744067    -0.35200
N2276       N  0.00294838  0.68906465  0.76794019    -0.27400
C2277       C  0.84468200  0.52278795  0.52881453     0.04100
C2278       C  0.84486723  0.51262054  0.53705771    -0.12100
C2279       C  0.84358010  0.50393050  0.51316763     0.01600
C2280       C  0.85895164  0.52152703  0.96013159    -0.10600
C2281       C  0.86427465  0.53700712  0.96006916     0.04100
C2282       C  0.84195698  0.52310383  0.49636944    -0.10000
H2283       H  0.85067028  0.51582600  0.56157804     0.09700
H2284       H  0.85776854  0.51622908  0.93771270     0.07200
H2285       H  0.84511409  0.53391499  0.48979132     0.07000
C2286       C  0.86456348  0.49562158  0.51574688     0.04100
C2287       C  0.91489394  0.54212236  0.99869409    -0.12100
C2288       C  0.92579152  0.56199531  0.99359868     0.01600
C2289       C  0.88902518  0.53753085  0.52281904    -0.10600
C2290       C  0.85962277  0.50937029  0.51894601     0.04100
C2291       C  0.84731508  0.48829798  0.51538902    -0.10000
H2292       H  0.92905952  0.54891059  0.00291390     0.09700
H2293       H  0.89863827  0.55393260  0.52486686     0.07200
H2294       H  0.82460867  0.46647592  0.51232582     0.07000
N2295       N  0.86777747  0.44337509  0.70735196    -0.26300
N2296       N  0.84373744  0.42454028  0.71775882    -0.34200
C2297       C  0.83088997  0.41817310  0.69430402     0.02000
C2298       C  0.84796069  0.43414571  0.66794623     0.08000
C2299       C  0.87132864  0.45011627  0.67753276    -0.05100
H2300       H  0.81045243  0.40272474  0.69623843     0.08700
H2301       H  0.88951919  0.46528259  0.66369816     0.09900
Cu2302     Cu  0.83158585  0.41062989  0.76430500     0.44200
Cu2303     Cu  0.89245714  0.45567777  0.73152272     0.42000
Cu2304     Cu  0.87013290  0.42590798  0.80700352     0.43900
N2305       N  0.83295277  0.40994736  0.81383063    -0.33700
N2306       N  0.84621930  0.41470958  0.82900840    -0.28000
C2307       C  0.84770665  0.41812255  0.86066140    -0.04100
C2308       C  0.83539226  0.41606189  0.86572364     0.08100
C2309       C  0.82599516  0.41056270  0.83552210     0.01900
H2310       H  0.85972451  0.42482156  0.87822911     0.09600
H2311       H  0.81761539  0.41021395  0.82938561     0.08700
N2312       N  0.90099060  0.44732336  0.78148765    -0.35200
N2313       N  0.90920907  0.45847298  0.75371513    -0.27400
C2314       C  0.92945689  0.47122654  0.74279010    -0.02600
C2315       C  0.93474482  0.46847948  0.76496831     0.06000
C2316       C  0.91624099  0.45314252  0.78929169     0.04100
H2317       H  0.93952331  0.48166586  0.72020991     0.09200
H2318       H  0.91431807  0.44707433  0.81125409     0.08000
C2319       C  0.83849750  0.44606467  0.54429336     0.04100
C2320       C  0.84980132  0.46643177  0.54397804    -0.12100
C2321       C  0.85189066  0.47368230  0.51514302     0.01600
C2322       C  0.86385790  0.47759860  0.97527681    -0.10600
C2323       C  0.85156125  0.45659701  0.97884699     0.04100
C2324       C  0.83008156  0.43364237  0.51483969    -0.10000
H2325       H  0.85764292  0.47722778  0.56617803     0.09700
H2326       H  0.86684482  0.48337403  0.95141488     0.07200
H2327       H  0.82208180  0.41849294  0.51439744     0.07000
N2328       N  0.10676417  0.56796212  0.82160197    -0.26300
N2329       N  0.12810297  0.58331163  0.80784114    -0.34200
C2330       C  0.14792414  0.59937383  0.83074187     0.02000
C2331       C  0.13850303  0.59376555  0.86026846     0.08000
C2332       C  0.11231691  0.57371139  0.85349688    -0.05100
H2333       H  0.16850952  0.61542671  0.82603171     0.08700
H2334       H  0.09940124  0.56575491  0.87012179     0.09900
Cu2335     Cu  0.13087222  0.58492898  0.75804416     0.44200
Cu2336     Cu  0.07426797  0.54487118  0.79585778     0.42000
Cu2337     Cu  0.08092988  0.55433471  0.71032415     0.43900
N2338       N  0.13084029  0.58636795  0.70814613    -0.33700
N2339       N  0.11313267  0.57577561  0.69108344    -0.28000
C2340       C  0.12029994  0.58229860  0.66015321    -0.04100
C2341       C  0.14341912  0.59748089  0.65758484     0.08100
C2342       C  0.14960703  0.59974365  0.68838688     0.01900
H2343       H  0.11001787  0.57716445  0.64114053     0.09600
H2344       H  0.16721767  0.61134301  0.69610313     0.08700
N2345       N  0.05090994  0.53391731  0.73657542    -0.35200
N2346       N  0.04819269  0.52986806  0.76767610    -0.27400
C2347       C  0.02778640  0.51698159  0.77819985    -0.02600
C2348       C  0.01713933  0.51274534  0.75259401     0.06000
C2349       C  0.03227510  0.52377578  0.72649604     0.04100
H2350       H  0.02190431  0.51207039  0.80297240     0.09200
H2351       H  0.03028708  0.52485374  0.70223012     0.08000
C2352       C  0.20982672  0.65389272  0.54513865     0.04100
C2353       C  0.23929944  0.68022510  0.54675418    -0.12100
C2354       C  0.25445034  0.69450225  0.51854918     0.01600
C2355       C  0.23375981  0.68318548  0.97940289    -0.10600
C2356       C  0.20543906  0.65992256  0.98008691     0.04100
C2357       C  0.19551426  0.64154568  0.51516122    -0.10000
H2358       H  0.25039242  0.68966240  0.56988366     0.09700
H2359       H  0.24211275  0.68817837  0.95716420     0.07200
H2360       H  0.17274318  0.62116179  0.51399343     0.07000
C2361       C  0.33343755  0.77163886  0.51453304     0.01600
C2362       C  0.30456875  0.74707568  0.51613851    -0.10600
C2363       C  0.28506253  0.72101123  0.51976131     0.04100
H2364       H  0.29733517  0.74815680  0.51412758     0.07200
C2365       C  0.19386816  0.64012307  0.57488140    -0.04400
C2366       C  0.19495880  0.65041162  0.59203818    -0.01500
C2367       C  0.17841546  0.63641500  0.61904913     0.03500
C2368       C  0.16055793  0.61194918  0.62897659    -0.04400
C2369       C  0.15922991  0.60147332  0.61165493    -0.01500
C2370       C  0.17609591  0.61571395  0.58485306     0.03500
C2371       C  0.21267061  0.67509094  0.58137386     0.38100
C2372       C  0.13966784  0.57543280  0.62065932     0.38100
C2373       C  0.17539283  0.60544834  0.56767713     0.36500
C2374       C  0.17967589  0.64713761  0.63656034     0.36500
N2375       N  0.17497744  0.59737607  0.55405861    -0.38300
N2376       N  0.18063666  0.65566184  0.65046819    -0.38300
N2377       N  0.12380920  0.55447981  0.62764975    -0.37700
N2378       N  0.22682845  0.69476898  0.57271170    -0.37700
C2379       C  0.18722786  0.64240931  0.94991608    -0.04400
C2380       C  0.19511550  0.65496975  0.92198233    -0.01500
C2381       C  0.17956206  0.63921935  0.89262202     0.03500
C2382       C  0.15537999  0.61048228  0.89103418    -0.04400
C2383       C  0.14681101  0.59759471  0.91911698    -0.01500
C2384       C  0.16296560  0.61359609  0.94827747     0.03500
C2385       C  0.21899844  0.68406325  0.92348697     0.38100
C2386       C  0.12172214  0.56797317  0.91783229     0.38100
C2387       C  0.15525101  0.60064226  0.97621606     0.36500
C2388       C  0.18813148  0.65251048  0.86413025     0.36500
N2389       N  0.14922974  0.59043229  0.99855663    -0.38300
N2390       N  0.19494434  0.66304376  0.84132236    -0.38300
N2391       N  0.10167062  0.54432536  0.91690728    -0.37700
N2392       N  0.23803311  0.70725684  0.92458614    -0.37700
C2393       C  0.95600698  0.47993768  0.76260713    -0.04400
C2394       C  0.94870006  0.46291760  0.76876692    -0.01500
C2395       C  0.96854095  0.47350325  0.76467728     0.03500
C2396       C  0.99575509  0.50106228  0.75429640    -0.04400
C2397       C  0.00315130  0.51811366  0.74816400    -0.01500
C2398       C  0.98358005  0.50781724  0.75288284     0.03500
C2399       C  0.92066625  0.43430494  0.77876993     0.38100
C2400       C  0.03127253  0.54666418  0.73805250     0.38100
C2401       C  0.99253315  0.52662383  0.74951662     0.36500
C2402       C  0.96071079  0.45572966  0.77034051     0.36500
N2403       N  0.99978169  0.54171507  0.74703517    -0.38300
N2404       N  0.95455325  0.44162566  0.77475878    -0.38300
N2405       N  0.05365007  0.56940863  0.72989544    -0.37700
N2406       N  0.89841874  0.41151035  0.78696550    -0.37700
C2407       C  0.83924805  0.42612199  0.89490730    -0.04400
C2408       C  0.81579599  0.40904984  0.90863570    -0.01500
C2409       C  0.81962094  0.41872661  0.93641568     0.03500
C2410       C  0.84692660  0.44568093  0.95019305    -0.04400
C2411       C  0.87041835  0.46297884  0.93613191    -0.01500
C2412       C  0.86665724  0.45332064  0.90860500     0.03500
C2413       C  0.78771674  0.38149073  0.89425965     0.38100
C2414       C  0.89862548  0.49093466  0.94997558     0.38100
C2415       C  0.89128291  0.47204489  0.89367420     0.36500
C2416       C  0.79557926  0.40119723  0.95057469     0.36500
N2417       N  0.91096461  0.48703765  0.88182676    -0.38300
N2418       N  0.77642019  0.38724282  0.96191933    -0.38300
N2419       N  0.92107915  0.51324095  0.96097836    -0.37700
N2420       N  0.76533313  0.35956384  0.88266611    -0.37700
C2421       C  0.84271543  0.43420382  0.63587936    -0.04400
C2422       C  0.83031259  0.43246701  0.63325100    -0.01500
C2423       C  0.82709516  0.43427673  0.60299292     0.03500
C2424       C  0.83821716  0.44007277  0.57532748    -0.04400
C2425       C  0.85074354  0.44195476  0.57803524    -0.01500
C2426       C  0.85145492  0.43741532  0.60761506     0.03500
C2427       C  0.82194791  0.43014604  0.66166070     0.38100
C2428       C  0.86454174  0.45023009  0.55100020     0.38100
C2429       C  0.86054288  0.43530667  0.60841048     0.36500
C2430       C  0.81251893  0.43044219  0.60054886     0.36500
N2431       N  0.86769124  0.43352601  0.60883343    -0.38300
N2432       N  0.80108987  0.42759569  0.59865664    -0.38300
N2433       N  0.87564613  0.45691043  0.52956388    -0.37700
N2434       N  0.81524886  0.42836367  0.68413734    -0.37700
C2435       C  0.88364815  0.57005818  0.87105033    -0.04400
C2436       C  0.89515348  0.57111825  0.87842250    -0.01500
C2437       C  0.88986276  0.56151910  0.90781388     0.03500
C2438       C  0.87085530  0.54835218  0.92927343    -0.04400
C2439       C  0.85834260  0.54622829  0.92094841    -0.01500
C2440       C  0.86538700  0.55778077  0.89235298     0.03500
C2441       C  0.91189427  0.58136906  0.85515044     0.38100
C2442       C  0.83719409  0.53102802  0.94083442     0.38100
C2443       C  0.90448918  0.56566072  0.91520501     0.36500
N2444       N  0.91619447  0.56891064  0.91948529    -0.38300
N2445       N  0.92470538  0.58893281  0.83644856    -0.37700
C2446       C  0.88313975  0.57239125  0.61151044    -0.04400
C2447       C  0.85342048  0.54564055  0.60626491    -0.01500
C2448       C  0.84026996  0.52966574  0.57761981     0.03500
C2449       C  0.85682938  0.54120339  0.55321644    -0.04400
C2450       C  0.88635995  0.56971548  0.55581005    -0.01500
C2451       C  0.89963497  0.58512944  0.58510244     0.03500
C2452       C  0.90315666  0.58261138  0.52876160     0.38100
C2453       C  0.93011043  0.61314874  0.58790369     0.36500
C2454       C  0.80977869  0.50106311  0.57357832     0.36500
N2455       N  0.95447963  0.63545821  0.58862450    -0.38300
N2456       N  0.91636015  0.59285644  0.50692426    -0.37700
C2457       C  0.62411518  0.96231168  0.71235074    -0.04400
C2458       C  0.63158836  0.97832612  0.69640031    -0.01500
C2459       C  0.61314061  0.96958327  0.69588613     0.03500
C2460       C  0.58814949  0.94599400  0.71294608    -0.04400
C2461       C  0.57925355  0.92841676  0.72583140    -0.01500
C2462       C  0.59716090  0.93648024  0.72530866     0.03500
C2463       C  0.65925925  0.00519841  0.68328340     0.38100
C2464       C  0.62049786  0.98570040  0.67935135     0.36500
N2465       N  0.62614465  0.99833455  0.66598814    -0.38300
N2466       N  0.68137575  0.02676842  0.67301721    -0.37700
C2467       C  0.77254827  0.11340259  0.87473626    -0.04400
C2468       C  0.75018508  0.09862855  0.88565765    -0.01500
C2469       C  0.75163747  0.10407359  0.91692611     0.03500
C2470       C  0.77581125  0.12487476  0.93728529    -0.04400
C2471       C  0.72540205  0.07745853  0.86482122     0.38100
C2472       C  0.72751582  0.08711028  0.92878810     0.36500
N2473       N  0.70830147  0.07354981  0.93844223    -0.38300
N2474       N  0.70562392  0.06055705  0.84824915    -0.37700
C2475       C  0.77090328  0.10852374  0.60629953    -0.04400
C2476       C  0.79462514  0.13604109  0.59621230    -0.01500
C2477       C  0.79359606  0.14012127  0.56625538     0.03500
C2478       C  0.76926161  0.11683029  0.54566253    -0.04400
C2479       C  0.74587346  0.08942745  0.55517496    -0.01500
C2480       C  0.74633306  0.08518467  0.58561605     0.03500
C2481       C  0.82024158  0.16027052  0.61645752     0.38100
C2482       C  0.72069339  0.06540571  0.53415199     0.38100
C2483       C  0.72060674  0.05660660  0.59615815     0.36500
N2484       N  0.69994867  0.03373200  0.60432858    -0.38300
N2485       N  0.70069764  0.04630989  0.51731715    -0.37700
N2486       N  0.84071401  0.17966356  0.63255047    -0.37700
C2487       C  0.41267569  0.86319507  0.94849126    -0.04400
C2488       C  0.41493501  0.87410100  0.92949829    -0.01500
C2489       C  0.42962488  0.88738566  0.90066041     0.03500
C2490       C  0.44085162  0.88848455  0.88980755    -0.04400
C2491       C  0.43767682  0.87665532  0.90864532    -0.01500
C2492       C  0.42468929  0.86514957  0.93837222     0.03500
C2493       C  0.40147559  0.87095148  0.93924308     0.38100
C2494       C  0.44593707  0.87442298  0.89677384     0.38100
C2495       C  0.42347580  0.85506124  0.95864383     0.36500
C2496       C  0.43350100  0.90026480  0.88255870     0.36500
N2497       N  0.42262954  0.84718111  0.97499549    -0.38300
N2498       N  0.43663143  0.91058165  0.86815570    -0.38300
N2499       N  0.45224557  0.87234486  0.88736704    -0.37700
N2500       N  0.39050987  0.86820035  0.94688587    -0.37700
C2501       C  0.44355578  0.89532842  0.62460333    -0.04400
C2502       C  0.43511275  0.89585195  0.60530798    -0.01500
C2503       C  0.42055977  0.88071065  0.57538086     0.03500
C2504       C  0.41354507  0.86421671  0.56525270    -0.04400
C2505       C  0.42245295  0.86412194  0.58437870    -0.01500
C2506       C  0.43723486  0.87945651  0.61394927     0.03500
C2507       C  0.44146204  0.91200353  0.61625510     0.38100
C2508       C  0.41696265  0.84869692  0.57327466     0.38100
C2509       C  0.44555515  0.87848804  0.63365117     0.36500
C2510       C  0.41295582  0.88220953  0.55490965     0.36500
N2511       N  0.45230652  0.87784352  0.64933538    -0.38300
N2512       N  0.40715515  0.88362636  0.53831622    -0.38300
N2513       N  0.41264950  0.83646020  0.56444863    -0.37700
N2514       N  0.44641746  0.92478937  0.62510908    -0.37700
C2515       C  0.57459506  0.94317019  0.72228583    -0.04400
C2516       C  0.55009026  0.92402862  0.70577857    -0.01500
C2517       C  0.53933012  0.92374304  0.71310830     0.03500
C2518       C  0.55326757  0.94285118  0.73677815    -0.04400
C2519       C  0.57730592  0.96138255  0.75396303    -0.01500
C2520       C  0.58781747  0.96142322  0.74684146     0.03500
C2521       C  0.53626573  0.90497586  0.68098925     0.38100
C2522       C  0.59209898  0.98138688  0.77797780     0.38100
C2523       C  0.61277484  0.98079849  0.76430728     0.36500
C2524       C  0.51360685  0.90340004  0.69671060     0.36500
N2525       N  0.63271324  0.99626099  0.77806819    -0.38300
N2526       N  0.49303264  0.88711036  0.68370038    -0.38300
N2527       N  0.60390761  0.99735058  0.79710853    -0.37700
N2528       N  0.52518985  0.88970758  0.66128367    -0.37700
C2529       C  0.99400840  0.64618666  0.94539095    -0.04400
C2530       C  0.97662847  0.63880227  0.94386266    -0.01500
C2531       C  0.97638525  0.64499743  0.91676512     0.03500
C2532       C  0.99314514  0.65818689  0.89047266    -0.04400
C2533       C  0.01182001  0.66710701  0.89295184    -0.01500
C2534       C  0.01194081  0.66078203  0.92011228     0.03500
C2535       C  0.95768391  0.62341143  0.96944805     0.38100
C2536       C  0.03134959  0.68326264  0.86779030     0.38100
C2537       C  0.02983857  0.66846930  0.92159342     0.36500
C2538       C  0.95785526  0.63658057  0.91580750     0.36500
N2539       N  0.04407344  0.67454005  0.92263097    -0.38300
N2540       N  0.94312536  0.62992096  0.91569265    -0.38300
N2541       N  0.04692314  0.69617835  0.84768110    -0.37700
N2542       N  0.94232855  0.61116318  0.98935881    -0.37700
C2543       C  0.99726505  0.64112670  0.57238809    -0.04400
C2544       C  0.01250202  0.66459306  0.57271916    -0.01500
C2545       C  0.01477735  0.67261925  0.60115373     0.03500
C2546       C  0.00112359  0.65681677  0.62913004    -0.04400
C2547       C  0.99058088  0.63690858  0.63002577    -0.01500
C2548       C  0.99103985  0.63111142  0.60243735     0.03500
C2549       C  0.02681954  0.68144832  0.54481987     0.38100
C2550       C  0.97673937  0.62012171  0.65778364     0.38100
C2551       C  0.98404764  0.61388272  0.60461331     0.36500
C2552       C  0.03130034  0.69726661  0.60129193     0.36500
N2553       N  0.97856925  0.60023999  0.60639709    -0.38300
N2554       N  0.04451126  0.71693647  0.60098723    -0.38300
N2555       N  0.96534220  0.60623907  0.67949993    -0.37700
N2556       N  0.03899732  0.69573813  0.52321695    -0.37700
N2557       N  0.48729980  0.14521815  0.15480592    -0.26300
N2558       N  0.48980959  0.13993279  0.17610480    -0.34200
C2559       C  0.49793558  0.13903491  0.16097791     0.02000
C2560       C  0.49976834  0.14278599  0.12856681     0.08000
C2561       C  0.49293075  0.14670974  0.12566623    -0.05100
H2562       H  0.50278206  0.13648113  0.17325019     0.08700
H2563       H  0.49200826  0.15031241  0.10392234     0.09900
Cu2564     Cu  0.48431525  0.13527626  0.22752866     0.44200
Cu2565     Cu  0.47696850  0.15165468  0.16707790     0.42000
Cu2566     Cu  0.47421587  0.15193209  0.27127934     0.43900
N2567       N  0.48686371  0.14007467  0.27911915    -0.33700
N2568       N  0.48478716  0.14698233  0.29498093    -0.28000
C2569       C  0.48922169  0.14923862  0.32661161    -0.04100
C2570       C  0.49358030  0.14289090  0.33094314     0.08100
C2571       C  0.49194491  0.13729958  0.30032097     0.01900
H2572       H  0.48867553  0.15450918  0.34508312     0.09600
H2573       H  0.49337587  0.13067919  0.29383218     0.08700
C2574       C  0.48774075  0.11046377  0.44042745     0.04100
C2575       C  0.50130654  0.12476138  0.47052606    -0.12100
C2576       C  0.48966740  0.11007476  0.01571849     0.01600
C2577       C  0.46170577  0.08061133  0.01873670    -0.10600
C2578       C  0.45308125  0.06755112  0.46545525     0.04100
C2579       C  0.46462042  0.08237246  0.43788796    -0.10000
H2580       H  0.51929872  0.14653301  0.47203472     0.09700
H2581       H  0.45218225  0.07175815  0.04193232     0.07200
H2582       H  0.45356647  0.07116399  0.41483724     0.07000
N2583       N  0.89591422  0.32425509  0.32619229    -0.26300
N2584       N  0.87153135  0.30226064  0.30966212    -0.34200
C2585       C  0.85045227  0.28148177  0.33006090     0.02000
C2586       C  0.86224213  0.29103161  0.36074054     0.08000
C2587       C  0.89101222  0.31818512  0.35730222    -0.05100
H2588       H  0.82841282  0.26023973  0.32269226     0.08700
H2589       H  0.90720033  0.33143881  0.37551440     0.09900
Cu2590     Cu  0.86817346  0.29987160  0.25959530     0.44200
Cu2591     Cu  0.93507746  0.35932268  0.30653403     0.42000
Cu2592     Cu  0.93597369  0.36388258  0.22263895     0.43900
N2593       N  0.87296831  0.30414241  0.21002610    -0.33700
N2594       N  0.89782808  0.32792725  0.19696610    -0.28000
C2595       C  0.89470303  0.32334366  0.16520819    -0.04100
C2596       C  0.86656336  0.29531002  0.15772573     0.08100
C2597       C  0.85330454  0.28372929  0.18667633     0.01900
H2598       H  0.91200125  0.33871494  0.14921309     0.09600
H2599       H  0.83147811  0.26170560  0.19083334     0.08700
N2600       N  0.97149072  0.39282845  0.24995158    -0.35200
N2601       N  0.97110728  0.39062472  0.28106912    -0.27400
C2602       C  0.99608207  0.40979756  0.29097685    -0.02600
C2603       C  0.01296132  0.42477520  0.26465912     0.06000
C2604       C  0.99668533  0.41353837  0.23917014     0.04100
H2605       H  0.00103959  0.41171726  0.31510983     0.09200
H2606       H  0.00222011  0.41905081  0.21425526     0.08000
C2607       C  0.81948982  0.23356922  0.47602246     0.04100
C2608       C  0.83084108  0.24894450  0.00778738    -0.12100
C2609       C  0.82266844  0.23738330  0.03727302     0.01600
C2610       C  0.80471238  0.21224512  0.03758986    -0.10600
C2611       C  0.79520346  0.19883369  0.00873523     0.04100
C2612       C  0.79975499  0.20728434  0.47628395    -0.10000
H2613       H  0.84492550  0.26851218  0.00745196     0.09700
H2614       H  0.79807121  0.20308180  0.06031166     0.07200
H2615       H  0.79157794  0.19646419  0.45378777     0.07000
N2616       N  0.31731546  0.68571461  0.18772921    -0.26300
N2617       N  0.33357158  0.70775435  0.20224410    -0.34200
C2618       C  0.34352279  0.72324458  0.17967302     0.02000
C2619       C  0.33286964  0.71015647  0.14975971     0.08000
C2620       C  0.31681682  0.68677660  0.15590659    -0.05100
H2621       H  0.35551806  0.74123770  0.18484411     0.08700
H2622       H  0.30316107  0.67002587  0.13882497     0.09900
Cu2623     Cu  0.33764276  0.71303809  0.25232613     0.44200
Cu2624     Cu  0.28781657  0.64964132  0.20995389     0.42000
Cu2625     Cu  0.28813895  0.65111200  0.29368479     0.43900
N2626       N  0.33613815  0.71066176  0.30242967    -0.33700
N2627       N  0.31895788  0.68841528  0.31684574    -0.28000
C2628       C  0.32075796  0.69175388  0.34864073    -0.04100
C2629       C  0.33999732  0.71730391  0.35485197     0.08100
C2630       C  0.34933867  0.72880450  0.32503823     0.01900
H2631       H  0.30715377  0.67563727  0.36571087     0.09600
H2632       H  0.36307207  0.74787536  0.31998859     0.08700
N2633       N  0.25189979  0.61443426  0.26636957    -0.35200
N2634       N  0.25160811  0.61393132  0.23468118    -0.27400
C2635       C  0.22489877  0.59023634  0.22307745    -0.02600
C2636       C  0.20759797  0.57508678  0.24885574     0.06000
C2637       C  0.22539789  0.59096776  0.27589417     0.04100
H2638       H  0.21898809  0.58602719  0.19802376     0.09200
H2639       H  0.21995616  0.58754722  0.30035282     0.08000
C2640       C  0.32869847  0.72238251  0.99873365    -0.12100
H2641       H  0.33091853  0.71623710  0.99866070     0.09700
N2642       N  0.42205249  0.08862298  0.27305206    -0.26300
N2643       N  0.40056572  0.06345836  0.26031991    -0.34200
C2644       C  0.38146611  0.04406404  0.28250549     0.02000
C2645       C  0.39132316  0.05737550  0.31125422     0.08000
C2646       C  0.41711463  0.08565625  0.30433237    -0.05100
H2647       H  0.36358223  0.02239933  0.27906202     0.08700
H2648       H  0.43248533  0.10299650  0.32162832     0.09900
Cu2649     Cu  0.39981875  0.05683474  0.21526615     0.44200
Cu2650     Cu  0.45972685  0.12631774  0.24886762     0.42000
Cu2651     Cu  0.46127620  0.12684781  0.19444079     0.43900
N2652       N  0.40591255  0.06669424  0.16942039    -0.33700
N2653       N  0.42677675  0.09210405  0.16197396    -0.28000
C2654       C  0.42219914  0.09096339  0.13129770    -0.04100
C2655       C  0.39716071  0.06334309  0.11907004     0.08100
C2656       C  0.38787003  0.04886277  0.14413147     0.01900
H2657       H  0.43600961  0.10890233  0.11911488     0.09600
H2658       H  0.36907573  0.02675650  0.14430192     0.08700
N2659       N  0.50515573  0.17026412  0.20905793    -0.35200
N2660       N  0.50429024  0.17027022  0.23972034    -0.27400
C2661       C  0.34829672  0.00490459  0.00203987     0.04100
C2662       C  0.35001401  0.99626501  0.01137886    -0.12100
C2663       C  0.35018415  0.98869259  0.98840303     0.01600
C2664       C  0.35365005  0.99275336  0.43143204    -0.10600
C2665       C  0.35909511  0.00833574  0.43037348     0.04100
C2666       C  0.34558814  0.00486554  0.96920378    -0.10000
H2667       H  0.35551375  0.99952367  0.03625694     0.09700
H2668       H  0.35234324  0.98715545  0.40938538     0.07200
H2669       H  0.34710128  0.01413681  0.96173680     0.07000
C2670       C  0.37350448  0.98296609  0.99841810     0.04100
C2671       C  0.41346769  0.01807935  0.47173428    -0.12100
C2672       C  0.42294085  0.03663586  0.46412664     0.01600
C2673       C  0.39653238  0.02385585  0.99688858    -0.10600
C2674       C  0.36722632  0.99542546  0.99573152     0.04100
C2675       C  0.35561905  0.97487822  0.99656821    -0.10000
H2676       H  0.42856175  0.02603329  0.47634203     0.09700
H2677       H  0.40545552  0.03972689  0.99645870     0.07200
H2678       H  0.33291683  0.95281476  0.99514154     0.07000
N2679       N  0.36919825  0.92142006  0.18803226    -0.26300
N2680       N  0.34652043  0.90470280  0.19928382    -0.34200
C2681       C  0.33508325  0.90029322  0.17656875     0.02000
C2682       C  0.35164439  0.91542408  0.14974824     0.08000
C2683       C  0.37329977  0.92882399  0.15842517    -0.05100
H2684       H  0.31575771  0.88654465  0.17933864     0.08700
H2685       H  0.39080506  0.94284284  0.14418693     0.09900
Cu2686     Cu  0.33342635  0.89024527  0.24585840     0.44200
Cu2687     Cu  0.39146037  0.93036227  0.21097143     0.42000
Cu2688     Cu  0.36452957  0.89751434  0.28659785     0.43900
N2689       N  0.33029708  0.88472173  0.29492649    -0.33700
N2690       N  0.34118725  0.88674047  0.30955830    -0.28000
C2691       C  0.34097293  0.88795349  0.34152708    -0.04100
C2692       C  0.32957893  0.88683968  0.34752240     0.08100
C2693       C  0.32304091  0.88478119  0.31736084     0.01900
H2694       H  0.35200637  0.89337426  0.35892131     0.09600
H2695       H  0.31704123  0.88699217  0.31214909     0.08700
N2696       N  0.39462448  0.91734846  0.26271167    -0.35200
N2697       N  0.40515701  0.93007504  0.23534420    -0.27400
C2698       C  0.42481203  0.94155663  0.22681966    -0.02600
C2699       C  0.42674365  0.93581765  0.25006161     0.06000
C2700       C  0.40731887  0.92047722  0.27242478     0.04100
H2701       H  0.43663461  0.95301497  0.20520884     0.09200
H2702       H  0.40295863  0.91244553  0.29439161     0.08000
C2703       C  0.34493005  0.93132995  0.02769465     0.04100
C2704       C  0.35723754  0.95251465  0.02762029    -0.12100
C2705       C  0.36112853  0.96122874  0.99857466     0.01600
C2706       C  0.36414948  0.95397180  0.45445688    -0.10600
C2707       C  0.35528099  0.93575177  0.45999991     0.04100
C2708       C  0.33630229  0.91885038  0.99805099    -0.10000
H2709       H  0.36446771  0.96275801  0.05002844     0.09700
H2710       H  0.36408000  0.95681432  0.43009242     0.07200
H2711       H  0.32694153  0.90263706  0.99748518     0.07000
N2712       N  0.56409584  0.99303980  0.33670262    -0.26300
N2713       N  0.58383405  0.00535881  0.32550100    -0.34200
C2714       C  0.59756354  0.01356450  0.35061873     0.02000
C2715       C  0.58582724  0.00597756  0.37873640     0.08000
C2716       C  0.56479121  0.99313091  0.36895765    -0.05100
H2717       H  0.61592897  0.02581285  0.34872094     0.08700
H2718       H  0.55221220  0.98611844  0.38428105     0.09900
Cu2719     Cu  0.59378839  0.01393670  0.27695632     0.44200
Cu2720     Cu  0.53988455  0.98074403  0.30948653     0.42000
Cu2721     Cu  0.56066445  0.00363135  0.22993669     0.43900
N2722       N  0.59932003  0.02119919  0.22776511    -0.33700
N2723       N  0.58713386  0.01740814  0.21134152    -0.28000
C2724       C  0.59484059  0.02415819  0.18074910    -0.04100
C2725       C  0.61302572  0.03294591  0.17742332     0.08100
C2726       C  0.61528244  0.03062070  0.20772763     0.01900
H2727       H  0.58788747  0.02301637  0.16225038     0.09600
H2728       H  0.62807487  0.03600984  0.21485189     0.08700
N2729       N  0.53140761  0.98575359  0.25080436    -0.35200
N2730       N  0.52269911  0.97608262  0.28008074    -0.27400
C2731       C  0.50319927  0.96501700  0.28677460    -0.02600
C2732       C  0.49968319  0.96810763  0.26041536     0.06000
C2733       C  0.51792572  0.98137047  0.23807645     0.04100
H2734       H  0.49281094  0.95595360  0.30934986     0.09200
H2735       H  0.52106253  0.98727171  0.21429431     0.08000
C2736       C  0.65895942  0.06645931  0.05393281     0.04100
C2737       C  0.68652745  0.08865194  0.04983052    -0.12100
C2738       C  0.69621579  0.09613081  0.01888412     0.01600
C2739       C  0.67022934  0.07504890  0.49676743    -0.10600
C2740       C  0.64253267  0.05229701  0.50217063     0.04100
C2741       C  0.64107758  0.05178629  0.02694847    -0.10000
H2742       H  0.70057812  0.10044094  0.07065775     0.09700
H2743       H  0.67671178  0.07995371  0.47233033     0.07200
H2744       H  0.61992273  0.03497866  0.03009987     0.07000
C2745       C  0.77442752  0.17126091  0.00931490     0.01600
C2746       C  0.74611469  0.14741082  0.01350405    -0.10600
C2747       C  0.72581604  0.12088211  0.01475797     0.04100
H2748       H  0.73985570  0.14949566  0.01572600     0.07200
C2749       C  0.64919145  0.05945421  0.08664575    -0.04400
C2750       C  0.65207712  0.07196704  0.09986033    -0.01500
C2751       C  0.64151164  0.06430630  0.13026527     0.03500
C2752       C  0.62760808  0.04373759  0.14756875    -0.04400
C2753       C  0.62611488  0.03234652  0.13494368    -0.01500
C2754       C  0.63685974  0.04019213  0.10449690     0.03500
C2755       C  0.66589324  0.09271946  0.08203209     0.38100
C2756       C  0.61273487  0.01187950  0.15260129     0.38100
C2757       C  0.63485127  0.02813985  0.09110814     0.36500
C2758       C  0.64565498  0.07822298  0.14403034     0.36500
N2759       N  0.63340116  0.01869793  0.08017949    -0.38300
N2760       N  0.64905159  0.08940487  0.15499130    -0.38300
N2761       N  0.60221490  0.99563638  0.16661456    -0.37700
N2762       N  0.67696038  0.10930270  0.06784245    -0.37700
C2763       C  0.62354854  0.03697265  0.47386470    -0.04400
C2764       C  0.62698732  0.04941396  0.45736412    -0.01500
C2765       C  0.61392324  0.03870984  0.42667249     0.03500
C2766       C  0.59771249  0.01575855  0.41205892    -0.04400
C2767       C  0.59278128  0.00218461  0.42945228    -0.01500
C2768       C  0.60521949  0.01244411  0.46064173     0.03500
C2769       C  0.64435911  0.07353637  0.47196942     0.38100
C2770       C  0.57511303  0.97784161  0.41512101     0.38100
C2771       C  0.59913920  0.99780509  0.47922731     0.36500
C2772       C  0.61785990  0.05186492  0.40976761     0.36500
N2773       N  0.59390709  0.98586145  0.49432961    -0.38300
N2774       N  0.62092412  0.06231066  0.39637061    -0.38300
N2775       N  0.56104510  0.95844646  0.40359205    -0.37700
N2776       N  0.65816594  0.09269845  0.48385987    -0.37700
C2777       C  0.44545894  0.94410811  0.25123871    -0.04400
C2778       C  0.43386123  0.92358735  0.25606269    -0.01500
C2779       C  0.45156585  0.93145194  0.25926992     0.03500
C2780       C  0.48105068  0.95986079  0.25713542    -0.04400
C2781       C  0.49267454  0.98037504  0.25169521    -0.01500
C2782       C  0.47495899  0.97254069  0.24878983     0.03500
C2783       C  0.40349274  0.89406504  0.25657251     0.38100
C2784       C  0.52301279  0.00977430  0.25044372     0.38100
C2785       C  0.48729283  0.99397592  0.24455158     0.36500
C2786       C  0.43896769  0.90985462  0.26382924     0.36500
N2787       N  0.49715668  0.01109617  0.24117238    -0.38300
N2788       N  0.42781768  0.89178357  0.26729245    -0.38300
N2789       N  0.54720676  0.03324028  0.24953916    -0.37700
N2790       N  0.37931076  0.87048279  0.25689389    -0.37700
C2791       C  0.33588785  0.89881148  0.37695652    -0.04400
C2792       C  0.31456585  0.88136308  0.39840071    -0.01500
C2793       C  0.32089702  0.89325666  0.42598774     0.03500
C2794       C  0.34855147  0.92268087  0.43207184    -0.04400
C2795       C  0.36991320  0.94004553  0.41067190    -0.01500
C2796       C  0.36359854  0.92816929  0.38327643     0.03500
C2797       C  0.28611576  0.85122097  0.39196067     0.38100
C2798       C  0.39854952  0.97026588  0.41681504     0.38100
C2799       C  0.38560459  0.94629397  0.36116342     0.36500
C2800       C  0.29881220  0.87534077  0.44759991     0.36500
N2801       N  0.40303527  0.96060895  0.34344119    -0.38300
N2802       N  0.28125856  0.86112689  0.46493089    -0.38300
N2803       N  0.42135997  0.99437719  0.42154184    -0.37700
N2804       N  0.26338317  0.82715387  0.38685053    -0.37700
C2805       C  0.34726562  0.91679139  0.11809616    -0.04400
C2806       C  0.33564167  0.91595230  0.11623297    -0.01500
C2807       C  0.33272463  0.91832826  0.08630351     0.03500
C2808       C  0.34406156  0.92457655  0.05841492    -0.04400
C2809       C  0.35588891  0.92568531  0.06035822    -0.01500
C2810       C  0.35563284  0.91988353  0.08926178     0.03500
C2811       C  0.32771015  0.91392038  0.14501126     0.38100
C2812       C  0.36971834  0.93416059  0.03307575     0.38100
C2813       C  0.36300869  0.91602348  0.08850669     0.36500
C2814       C  0.31761758  0.91389551  0.08423212     0.36500
N2815       N  0.36874353  0.91279980  0.08748910    -0.38300
N2816       N  0.30537386  0.91013531  0.08264458    -0.38300
N2817       N  0.38079949  0.94098361  0.01136487    -0.37700
N2818       N  0.32140796  0.91244717  0.16777058    -0.37700
C2819       C  0.38404799  0.04627062  0.34262589    -0.04400
C2820       C  0.39560819  0.04752582  0.35160242    -0.01500
C2821       C  0.38719424  0.03481545  0.37959481     0.03500
C2822       C  0.36680286  0.02040496  0.39931948    -0.04400
C2823       C  0.35454799  0.01841940  0.38949370    -0.01500
C2824       C  0.36338259  0.03156564  0.36143381     0.03500
C2825       C  0.41568728  0.06121053  0.33121523     0.38100
C2826       C  0.33150960  0.00128623  0.40696623     0.38100
C2827       C  0.39909521  0.03592475  0.38636974     0.36500
N2828       N  0.40831454  0.03639438  0.38949505    -0.38300
N2829       N  0.43142587  0.07177940  0.31498132    -0.37700
C2830       C  0.38313060  0.05083520  0.08619547    -0.04400
C2831       C  0.35334862  0.02217760  0.08276603    -0.01500
C2832       C  0.34073662  0.00699549  0.05353753     0.03500
C2833       C  0.35735633  0.02090778  0.02674992    -0.04400
C2834       C  0.38577606  0.05050175  0.02822059    -0.01500
C2835       C  0.39896747  0.06543292  0.05806897     0.03500
C2836       C  0.40216003  0.06533658  0.99956670     0.38100
C2837       C  0.42910955  0.09521054  0.05952713     0.36500
C2838       C  0.31115980  0.97668030  0.05173042     0.36500
N2839       N  0.45318313  0.11897935  0.05960425    -0.38300
N2840       N  0.41520971  0.07727979  0.97670651    -0.37700
C2841       C  0.17846740  0.55208458  0.24847663    -0.04400
C2842       C  0.17272077  0.55676919  0.23775330    -0.01500
C2843       C  0.14555605  0.53570605  0.24056802     0.03500
C2844       C  0.12415113  0.51005433  0.25441277    -0.04400
C2845       C  0.12975527  0.50519267  0.26456120    -0.01500
C2846       C  0.15681134  0.52610768  0.26140909     0.03500
C2847       C  0.19490964  0.58354018  0.22478091     0.38100
C2848       C  0.13956103  0.54039319  0.22939427     0.36500
N2849       N  0.13467446  0.54403351  0.22055419    -0.38300
N2850       N  0.21255217  0.60486332  0.21441046    -0.37700
C2851       C  0.34302524  0.72572006  0.38570627    -0.04400
C2852       C  0.32035214  0.71064175  0.39580611    -0.01500
C2853       C  0.32048098  0.71455265  0.42742765     0.03500
C2854       C  0.34379182  0.73436273  0.44899035    -0.04400
C2855       C  0.29683144  0.69108407  0.37353833     0.38100
C2856       C  0.29599217  0.69725383  0.43819157     0.36500
N2857       N  0.27665698  0.68366065  0.44714473    -0.38300
N2858       N  0.27817516  0.67566606  0.35576149    -0.37700
C2859       C  0.33228857  0.71536729  0.11899914    -0.04400
C2860       C  0.35764764  0.74158524  0.10447633    -0.01500
C2861       C  0.35679539  0.74564929  0.07419348     0.03500
C2862       C  0.33063945  0.72385025  0.05884847    -0.04400
C2863       C  0.30532917  0.69781469  0.07346448    -0.01500
C2864       C  0.30608239  0.69357960  0.10345899     0.03500
C2865       C  0.38459587  0.76426246  0.12047369     0.38100
C2866       C  0.27840899  0.67523551  0.05737317     0.38100
C2867       C  0.27974161  0.66701967  0.11871907     0.36500
N2868       N  0.25871387  0.64581838  0.13081650    -0.38300
N2869       N  0.25700431  0.65726857  0.04442213    -0.37700
N2870       N  0.40610145  0.78242644  0.13335711    -0.37700
C2871       C  0.82848068  0.24626025  0.44510167    -0.04400
C2872       C  0.82238282  0.25087315  0.43740256    -0.01500
C2873       C  0.83263585  0.26476406  0.40923654     0.03500
C2874       C  0.84859367  0.27365528  0.38839400    -0.04400
C2875       C  0.85337315  0.26769437  0.39517326    -0.01500
C2876       C  0.84362042  0.25431411  0.42357676     0.03500
C2877       C  0.80543969  0.24120160  0.45846765     0.38100
C2878       C  0.86856973  0.27556289  0.37288152     0.38100
C2879       C  0.85016879  0.24986922  0.43116072     0.36500
C2880       C  0.82746708  0.27062072  0.40223373     0.36500
N2881       N  0.85549168  0.24641341  0.43707264    -0.38300
N2882       N  0.82330777  0.27527384  0.39685587    -0.38300
N2883       N  0.88069074  0.28191417  0.35493060    -0.37700
N2884       N  0.79193614  0.23343571  0.47543175    -0.37700
C2885       C  0.85480888  0.27996611  0.12716268    -0.04400
C2886       C  0.83320117  0.26496684  0.10915613    -0.01500
C2887       C  0.82285346  0.25126463  0.07954799     0.03500
C2888       C  0.83370115  0.25207019  0.06813252    -0.04400
C2889       C  0.85465664  0.26630487  0.08662475    -0.01500
C2890       C  0.86538221  0.28043563  0.11585520     0.03500
C2891       C  0.82186153  0.26392118  0.12089641     0.38100
C2892       C  0.86506028  0.26623258  0.07563478     0.38100
C2893       C  0.88680318  0.29482360  0.13470089     0.36500
C2894       C  0.80059679  0.23579079  0.06113740     0.36500
N2895       N  0.90391850  0.30634177  0.14971157    -0.38300
N2896       N  0.78277430  0.22336407  0.04648120    -0.38300
N2897       N  0.87316771  0.26596249  0.06697702    -0.37700
N2898       N  0.81274116  0.26300406  0.13030859    -0.37700
C2899       C  0.09545575  0.48787321  0.25767996    -0.04400
C2900       C  0.07346472  0.46480981  0.23543397    -0.01500
C2901       C  0.04625691  0.44360391  0.23858070     0.03500
C2902       C  0.04118296  0.44610306  0.26301141    -0.04400
C2903       C  0.06338714  0.46942878  0.28515807    -0.01500
C2904       C  0.09033630  0.49004291  0.28272046     0.03500
C2905       C  0.07908780  0.46329540  0.20879583     0.38100
C2906       C  0.05892949  0.47290132  0.30970354     0.38100
C2907       C  0.11300087  0.51378057  0.30566339     0.36500
C2908       C  0.02335138  0.41876366  0.21725585     0.36500
N2909       N  0.13113197  0.53277360  0.32388408    -0.38300
N2910       N  0.00510129  0.39891964  0.20030637    -0.38300
N2911       N  0.05545545  0.47577080  0.32924286    -0.37700
N2912       N  0.08370120  0.46227576  0.18742976    -0.37700
C2913       C  0.49172775  0.12157355  0.41402649    -0.04400
C2914       C  0.47396657  0.11370515  0.41150034    -0.01500
C2915       C  0.47616949  0.12262888  0.38585591     0.03500
C2916       C  0.49521320  0.13837682  0.36134635    -0.04400
C2917       C  0.51383749  0.14723836  0.36463101    -0.01500
C2918       C  0.51233420  0.13918887  0.39116936     0.03500
C2919       C  0.45280330  0.09587987  0.43498736     0.38100
C2920       C  0.53480531  0.16488250  0.34090645     0.38100
C2921       C  0.53178664  0.14879226  0.39486258     0.36500
C2922       C  0.45795710  0.11458876  0.38467079     0.36500
N2923       N  0.54746049  0.15664116  0.39793179    -0.38300
N2924       N  0.44344233  0.10818493  0.38461548    -0.38300
N2925       N  0.55143062  0.17881230  0.32189722    -0.37700
N2926       N  0.43565880  0.08179730  0.45305796    -0.37700
C2927       C  0.50523084  0.12855608  0.04552681    -0.04400
C2928       C  0.51917265  0.15107244  0.04627744    -0.01500
C2929       C  0.52013630  0.15781738  0.07484130     0.03500
C2930       C  0.50602725  0.14130823  0.10209362    -0.04400
C2931       C  0.49722966  0.12281795  0.10284721    -0.01500
C2932       C  0.49950015  0.11876195  0.07537689     0.03500
C2933       C  0.53355346  0.16825965  0.01881165     0.38100
C2934       C  0.48332966  0.10570113  0.13017401     0.38100
C2935       C  0.49430532  0.10306544  0.07719202     0.36500
C2936       C  0.53594219  0.18195922  0.07619227     0.36500
N2937       N  0.49026934  0.09064955  0.07860439    -0.38300
N2938       N  0.54872508  0.20133342  0.07726417    -0.38300
N2939       N  0.47192084  0.09160978  0.15157712    -0.37700
N2940       N  0.54589987  0.18291487  0.99763892    -0.37700
N2941       N  0.47119295  0.12432437  0.65790439    -0.26300
N2942       N  0.47932867  0.12375423  0.67538120    -0.34200
C2943       C  0.49064924  0.12740037  0.65564565     0.02000
C2944       C  0.48872564  0.12917807  0.62415930     0.08000
C2945       C  0.47610247  0.12696773  0.62693703    -0.05100
H2946       H  0.49987317  0.12892320  0.66415364     0.08700
H2947       H  0.46973508  0.12614066  0.60762857     0.09900
Cu2948     Cu  0.47589270  0.11807707  0.72723125     0.44200
Cu2949     Cu  0.45262155  0.12138016  0.67625824     0.42000
Cu2950     Cu  0.44577269  0.11260485  0.77813179     0.43900
N2951       N  0.47549165  0.11839068  0.77999085    -0.33700
N2952       N  0.46518297  0.11643887  0.79742786    -0.28000
C2953       C  0.46966425  0.11845189  0.82868788    -0.04100
C2954       C  0.48379366  0.12235924  0.83183413     0.08100
C2955       C  0.48715489  0.12228110  0.80034147     0.01900
H2956       H  0.46245116  0.11651835  0.84788082     0.09600
H2957       H  0.49779960  0.12538770  0.79253839     0.08700
C2958       C  0.48165665  0.10192341  0.95724220     0.04100
C2959       C  0.49979884  0.12035651  0.98444789    -0.12100
C2960       C  0.48919463  0.10998462  0.49875601     0.01600
C2961       C  0.46586563  0.08165065  0.49561034    -0.10600
C2962       C  0.44469164  0.06204146  0.99201442     0.04100
C2963       C  0.45458458  0.07278168  0.96123240    -0.10000
H2964       H  0.52110992  0.14256315  0.98067820     0.09700
H2965       H  0.45484713  0.06920289  0.51677479     0.07200
H2966       H  0.44028437  0.05846327  0.94047302     0.07000
N2967       N  0.88917149  0.31814727  0.82076456    -0.26300
N2968       N  0.86414532  0.29424585  0.80564600    -0.34200
C2969       C  0.84512566  0.27366608  0.82703736     0.02000
C2970       C  0.85916003  0.28542497  0.85668602     0.08000
C2971       C  0.88692508  0.31354682  0.85173807    -0.05100
H2972       H  0.82306474  0.25169744  0.82121599     0.08700
H2973       H  0.90445609  0.32940144  0.86917284     0.09900
Cu2974     Cu  0.85852138  0.29124675  0.75596690     0.44200
Cu2975     Cu  0.92634996  0.35581534  0.79923519     0.42000
Cu2976     Cu  0.92334320  0.35888222  0.71656135     0.43900
N2977       N  0.86170035  0.29595380  0.70623883    -0.33700
N2978       N  0.88480623  0.32059846  0.69259606    -0.28000
C2979       C  0.88149467  0.31645124  0.66057575    -0.04100
C2980       C  0.85532795  0.28788621  0.65345328     0.08100
C2981       C  0.84319665  0.27550048  0.68298251     0.01900
H2982       H  0.89814898  0.33309753  0.64399730     0.09600
H2983       H  0.82359700  0.25344314  0.68743590     0.08700
N2984       N  0.96100082  0.39109280  0.74202569    -0.35200
N2985       N  0.96189272  0.38958368  0.77285527    -0.27400
C2986       C  0.98760336  0.40985463  0.78136666    -0.02600
C2987       C  0.00375136  0.42484996  0.75450228     0.06000
C2988       C  0.98626682  0.41253770  0.73002515     0.04100
H2989       H  0.99314964  0.41163943  0.80447563     0.09200
H2990       H  0.99069035  0.41706479  0.70477946     0.08000
C2991       C  0.82136377  0.23557829  0.97875873     0.04100
C2992       C  0.82962481  0.24722555  0.50524392    -0.12100
C2993       C  0.81933629  0.23430912  0.53441378     0.01600
C2994       C  0.79919995  0.20780927  0.53444413    -0.10600
C2995       C  0.78952721  0.19432951  0.50544937     0.04100
C2996       C  0.80359555  0.21054712  0.97939086    -0.10000
H2997       H  0.84485800  0.26752089  0.50521765     0.09700
H2998       H  0.79089661  0.19759992  0.55697666     0.07200
H2999       H  0.79601550  0.20001827  0.95704166     0.07000
N3000       N  0.29871828  0.66097443  0.68904343    -0.26300
N3001       N  0.31749208  0.68406441  0.70526190    -0.34200
C3002       C  0.33218056  0.70313588  0.68428465     0.02000
C3003       C  0.32202217  0.69136635  0.65349863     0.08000
C3004       C  0.30111868  0.66480334  0.65748019    -0.05100
H3005       H  0.34697404  0.72284890  0.69103820     0.08700
H3006       H  0.28645028  0.64830004  0.63903357     0.09900
Cu3007     Cu  0.31808599  0.68641264  0.75484027     0.44200
Cu3008     Cu  0.26426375  0.62231047  0.70902177     0.42000
Cu3009     Cu  0.26145878  0.62115910  0.79408096     0.43900
N3010       N  0.31147309  0.68149358  0.80367620    -0.33700
N3011       N  0.29138724  0.65784335  0.81806053    -0.28000
C3012       C  0.29026251  0.66006552  0.84855611    -0.04100
C3013       C  0.31051488  0.68633180  0.85367166     0.08100
C3014       C  0.32371078  0.69944803  0.82475891     0.01900
H3015       H  0.27456805  0.64310922  0.86510035     0.09600
H3016       H  0.33970053  0.71977569  0.81886388     0.08700
N3017       N  0.22608059  0.58645544  0.76425049    -0.35200
N3018       N  0.22693670  0.58705970  0.73259094    -0.27400
C3019       C  0.20131305  0.56569142  0.71982949    -0.02600
C3020       C  0.18357338  0.55104986  0.74474086     0.06000
C3021       C  0.19989586  0.56459545  0.77248531     0.04100
H3022       H  0.19699062  0.56335037  0.69466117     0.09200
H3023       H  0.19434292  0.56146668  0.79661639     0.08000
C3024       C  0.34236700  0.73052872  0.50893521    -0.12100
H3025       H  0.34445626  0.72433159  0.50558381     0.09700
N3026       N  0.40375289  0.05841171  0.77447776    -0.26300
N3027       N  0.38102708  0.03270307  0.76207902    -0.34200
C3028       C  0.36244413  0.01393924  0.78522047     0.02000
C3029       C  0.37400490  0.02861959  0.81358357     0.08000
C3030       C  0.39982625  0.05651196  0.80574926    -0.05100
H3031       H  0.34247640  0.99148470  0.78179511     0.08700
H3032       H  0.41505167  0.07417200  0.82220613     0.09900
Cu3033     Cu  0.37596724  0.02529487  0.71399161     0.44200
Cu3034     Cu  0.44112622  0.09632403  0.75063276     0.42000
Cu3035     Cu  0.44288358  0.10014041  0.69899999     0.43900
N3036       N  0.38425842  0.03959084  0.67108185    -0.33700
N3037       N  0.40765317  0.06644506  0.66627630    -0.28000
C3038       C  0.40656598  0.06875527  0.63566538    -0.04100
C3039       C  0.38167431  0.04232885  0.62049568     0.08100
C3040       C  0.36805728  0.02435688  0.64382423     0.01900
H3041       H  0.42376873  0.08843092  0.62418587     0.09600
H3042       H  0.34901865  0.00220191  0.64042956     0.08700
N3043       N  0.48487043  0.14416878  0.71537149    -0.35200
N3044       N  0.48316796  0.14177710  0.74593084    -0.27400
C3045       C  0.35960103  0.00918592  0.48921798     0.04100
C3046       C  0.35576865  0.99502406  0.48924895    -0.12100
C3047       C  0.35614819  0.98982570  0.46062250     0.01600
C3048       C  0.34552240  0.98680854  0.95597114    -0.10600
C3049       C  0.34485448  0.99638994  0.94603217     0.04100
C3050       C  0.36181812  0.01631093  0.45968023    -0.10000
H3051       H  0.35770780  0.99275099  0.51187617     0.09700
H3052       H  0.34759543  0.98279914  0.93806520     0.07200
H3053       H  0.36763555  0.02968230  0.45965321     0.07000
C3054       C  0.38430453  0.98910977  0.47339480     0.04100
C3055       C  0.40294469  0.01158771  0.99735764    -0.12100
C3056       C  0.41440321  0.03205264  0.99606294     0.01600
C3057       C  0.40320563  0.02605356  0.45883450    -0.10600
C3058       C  0.37428341  0.99753803  0.46148698     0.04100
C3059       C  0.36470081  0.97887819  0.46870913    -0.10000
H3060       H  0.41668873  0.01777314  0.99696209     0.09700
H3061       H  0.41058660  0.04053642  0.45428466     0.07200
H3062       H  0.34236777  0.95677709  0.47116075     0.07000
N3063       N  0.38000565  0.93578423  0.69247006    -0.26300
N3064       N  0.35767403  0.92039973  0.69979645    -0.34200
C3065       C  0.34950032  0.91839427  0.67388055     0.02000
C3066       C  0.36810668  0.93392140  0.64923861     0.08000
C3067       C  0.38739207  0.94495511  0.66265020    -0.05100
H3068       H  0.33095910  0.90595460  0.67295451     0.08700
H3069       H  0.40551609  0.95851281  0.65168229     0.09900
Cu3070     Cu  0.34183985  0.90516268  0.74610832     0.44200
Cu3071     Cu  0.39590425  0.93870090  0.71977126     0.42000
Cu3072     Cu  0.36438196  0.90333593  0.79275163     0.43900
N3073       N  0.33771088  0.89957313  0.79586339    -0.33700
N3074       N  0.34548551  0.89851563  0.81204982    -0.28000
C3075       C  0.34377073  0.89871070  0.84369382    -0.04100
C3076       C  0.33454100  0.89998819  0.84794023     0.08100
C3077       C  0.33090719  0.90052738  0.81713289     0.01900
H3078       H  0.35106289  0.90028444  0.86237294     0.09600
H3079       H  0.32599633  0.90376613  0.81082390     0.08700
N3080       N  0.39078219  0.91782648  0.76996639    -0.35200
N3081       N  0.40268777  0.93136797  0.74298282    -0.27400
C3082       C  0.41983453  0.93975955  0.73426763    -0.02600
C3083       C  0.41904316  0.93143737  0.75708924     0.06000
C3084       C  0.40032192  0.91746779  0.77942276     0.04100
H3085       H  0.43258727  0.95177502  0.71333011     0.09200
H3086       H  0.39498995  0.90878304  0.80150033     0.08000
C3087       C  0.36518483  0.94738814  0.51768923     0.04100
C3088       C  0.37545295  0.96672237  0.51130532    -0.12100
C3089       C  0.37426273  0.96946333  0.47993998     0.01600
C3090       C  0.35386988  0.94970690  0.96937627    -0.10600
C3091       C  0.34200691  0.92894464  0.96896260     0.04100
C3092       C  0.35490695  0.93177959  0.49172256    -0.10000
H3093       H  0.38431151  0.97961162  0.53071507     0.09700
H3094       H  0.35827659  0.95752858  0.94692403     0.07200
H3095       H  0.34741219  0.91717814  0.49605069     0.07000
N3096       N  0.56113005  0.99436358  0.84082544    -0.26300
N3097       N  0.57849233  0.00410351  0.82708194    -0.34200
C3098       C  0.59363500  0.01319713  0.85007607     0.02000
C3099       C  0.58553274  0.00908333  0.87975883     0.08000
C3100       C  0.56477138  0.99698806  0.87298036    -0.05100
H3101       H  0.61038417  0.02342290  0.84551335     0.08700
H3102       H  0.55391694  0.99153267  0.89007500     0.09900
Cu3103     Cu  0.58346805  0.00772258  0.77789063     0.44200
Cu3104     Cu  0.53589267  0.98120064  0.81522424     0.42000
Cu3105     Cu  0.54821651  0.99410850  0.72959631     0.43900
N3106       N  0.58710217  0.01207394  0.72849022    -0.33700
N3107       N  0.57446889  0.00749091  0.71084559    -0.28000
C3108       C  0.58208515  0.01356225  0.68024784    -0.04100
C3109       C  0.60029368  0.02227633  0.67852750     0.08100
C3110       C  0.60299570  0.02105454  0.70955457     0.01900
H3111       H  0.57559259  0.01259600  0.66085901     0.09600
H3112       H  0.61646047  0.02739674  0.71800161     0.08700
N3113       N  0.52097427  0.97836006  0.75331012    -0.35200
N3114       N  0.51591185  0.97292093  0.78423872    -0.27400
C3115       C  0.49711801  0.96264050  0.79190552    -0.02600
C3116       C  0.49013166  0.96166219  0.76452948     0.06000
C3117       C  0.50569261  0.97189857  0.74054760     0.04100
H3118       H  0.48963551  0.95695396  0.81578457     0.09200
H3119       H  0.50601646  0.97460766  0.71572932     0.08000
C3120       C  0.65376723  0.06295632  0.55983670     0.04100
C3121       C  0.68176284  0.08622344  0.55405228    -0.12100
C3122       C  0.68990554  0.09212479  0.52242245     0.01600
C3123       C  0.67824925  0.08130672  0.99193498    -0.10600
C3124       C  0.65066494  0.05917026  0.99589180     0.04100
C3125       C  0.63422162  0.04609429  0.53374023    -0.10000
H3126       H  0.69695260  0.09938415  0.57399929     0.09700
H3127       H  0.68595295  0.08749177  0.96797030     0.07200
H3128       H  0.61278733  0.02852321  0.53798262     0.07000
C3129       C  0.76731495  0.16587590  0.50550322     0.01600
C3130       C  0.74038489  0.14341127  0.51573330    -0.10600
C3131       C  0.71892014  0.11615902  0.51534140     0.04100
H3132       H  0.73591741  0.14699858  0.52303687     0.07200
C3133       C  0.64429365  0.05566427  0.59312196    -0.04400
C3134       C  0.65074663  0.07072663  0.61004646    -0.01500
C3135       C  0.63667934  0.06001027  0.63834032     0.03500
C3136       C  0.61691355  0.03475694  0.65051198    -0.04400
C3137       C  0.61295640  0.02150445  0.63550970    -0.01500
C3138       C  0.62662953  0.03196796  0.60685429     0.03500
C3139       C  0.67207243  0.09737474  0.59858434     0.38100
C3140       C  0.59426496  0.99667066  0.64879013     0.38100
C3141       C  0.62309819  0.01879622  0.59169545     0.36500
C3142       C  0.64262669  0.07503775  0.65507495     0.36500
N3143       N  0.62070681  0.00865322  0.57971201    -0.38300
N3144       N  0.64723028  0.08688142  0.66854967    -0.38300
N3145       N  0.57960454  0.97690905  0.65887942    -0.37700
N3146       N  0.68949361  0.11893155  0.58989913    -0.37700
C3147       C  0.63236759  0.04485340  0.96735476    -0.04400
C3148       C  0.62872535  0.05175937  0.95854626    -0.01500
C3149       C  0.61166820  0.03851858  0.93121516     0.03500
C3150       C  0.59953304  0.01951648  0.91136393    -0.04400
C3151       C  0.60297785  0.01241244  0.92047169    -0.01500
C3152       C  0.61895154  0.02469821  0.94867431     0.03500
C3153       C  0.64376432  0.07360932  0.97672450     0.38100
C3154       C  0.58977418  0.99215864  0.90101090     0.38100
C3155       C  0.62160356  0.01661755  0.95855783     0.36500
C3156       C  0.60750304  0.04528942  0.92313721     0.36500
N3157       N  0.62362827  0.01009570  0.96657596    -0.38300
N3158       N  0.60399676  0.05053958  0.91705714    -0.38300
N3159       N  0.57928041  0.97605680  0.88538279    -0.37700
N3160       N  0.65607554  0.09130239  0.99098373    -0.37700
C3161       C  0.43713050  0.93902794  0.75895565    -0.04400
C3162       C  0.42489926  0.91789376  0.76053811    -0.01500
C3163       C  0.44224338  0.92527903  0.76208245     0.03500
C3164       C  0.47185323  0.95379263  0.76219915    -0.04400
C3165       C  0.48409099  0.97490425  0.76037286    -0.01500
C3166       C  0.46681524  0.96757394  0.75857803     0.03500
C3167       C  0.39445110  0.88849409  0.75914379     0.38100
C3168       C  0.51455384  0.00427810  0.76103298     0.38100
C3169       C  0.47973476  0.98956041  0.75698059     0.36500
C3170       C  0.42957402  0.90347761  0.76256548     0.36500
N3171       N  0.48998960  0.00705042  0.75550405    -0.38300
N3172       N  0.41926336  0.88592581  0.76269768    -0.38300
N3173       N  0.53884110  0.02772049  0.76165061    -0.37700
N3174       N  0.37016643  0.86502254  0.75785089    -0.37700
C3175       C  0.33611167  0.90723003  0.87869345    -0.04400
C3176       C  0.31135012  0.88779274  0.89271565    -0.01500
C3177       C  0.31312327  0.89480820  0.92220714     0.03500
C3178       C  0.33957884  0.92096402  0.93816991    -0.04400
C3179       C  0.36425811  0.94010587  0.92454205    -0.01500
C3180       C  0.36259829  0.93350770  0.89465738     0.03500
C3181       C  0.28402368  0.86028382  0.87730020     0.38100
C3182       C  0.39138586  0.96644945  0.94166723     0.38100
C3183       C  0.38830036  0.95408642  0.88003253     0.36500
C3184       C  0.28784549  0.87532038  0.93603903     0.36500
N3185       N  0.40881045  0.97055496  0.86830956    -0.38300
N3186       N  0.26775933  0.85990154  0.94714893    -0.38300
N3187       N  0.41293341  0.98733169  0.95549708    -0.37700
N3188       N  0.26217311  0.83821885  0.86516893    -0.37700
C3189       C  0.36735851  0.93742083  0.61545058    -0.04400
C3190       C  0.35668119  0.93740123  0.60871247    -0.01500
C3191       C  0.35466566  0.93920681  0.57677489     0.03500
C3192       C  0.36616412  0.94426129  0.55141890    -0.04400
C3193       C  0.37889855  0.94659837  0.55843970    -0.01500
C3194       C  0.37780650  0.94134441  0.58950607     0.03500
C3195       C  0.34891030  0.93691762  0.63452134     0.38100
C3196       C  0.39432138  0.95564571  0.53398690     0.38100
C3197       C  0.38652148  0.93892868  0.59367500     0.36500
C3198       C  0.34029166  0.93542171  0.57011824     0.36500
N3199       N  0.39354215  0.93704792  0.59635831    -0.38300
N3200       N  0.32883106  0.93240539  0.56486873    -0.38300
N3201       N  0.40683101  0.96312616  0.51457477    -0.37700
N3202       N  0.34285988  0.93678848  0.65488529    -0.37700
C3203       C  0.36483084  0.01851895  0.84679441    -0.04400
C3204       C  0.38369582  0.03129364  0.86902921    -0.01500
C3205       C  0.37837885  0.02641979  0.90178505     0.03500
C3206       C  0.35194050  0.00512064  0.91230210    -0.04400
C3207       C  0.33214821  0.99102284  0.88994463    -0.01500
C3208       C  0.33887909  0.99820751  0.85723334     0.03500
C3209       C  0.40734114  0.04744074  0.85789610     0.38100
C3210       C  0.30513837  0.96942171  0.90064571     0.38100
C3211       C  0.40090894  0.04449975  0.92460730     0.36500
N3212       N  0.41966266  0.05993302  0.94209560    -0.38300
N3213       N  0.42543038  0.05927212  0.84874417    -0.37700
C3214       C  0.37768897  0.03669812  0.58556431    -0.04400
C3215       C  0.35612477  0.02149977  0.56678474    -0.01500
C3216       C  0.35049718  0.01318604  0.53447107     0.03500
C3217       C  0.36771466  0.02175210  0.52046659    -0.04400
C3218       C  0.39130779  0.03990215  0.53848867    -0.01500
C3219       C  0.39494069  0.04544615  0.57129188     0.03500
C3220       C  0.41218292  0.05314857  0.52346896     0.38100
C3221       C  0.41440021  0.05739280  0.59092033     0.36500
C3222       C  0.32659972  0.99516634  0.51616468     0.36500
N3223       N  0.42901136  0.06577599  0.60663741    -0.38300
N3224       N  0.42967205  0.06464409  0.51226746    -0.37700
C3225       C  0.15699394  0.53228284  0.74327378    -0.04400
C3226       C  0.15651374  0.54188307  0.73105373    -0.01500
C3227       C  0.13172445  0.52472992  0.73209391     0.03500
C3228       C  0.10756491  0.49825648  0.74598437    -0.04400
C3229       C  0.10801422  0.48865443  0.75816874    -0.01500
C3230       C  0.13265870  0.50561309  0.75674823     0.03500
C3231       C  0.18181966  0.56989820  0.71880832     0.38100
C3232       C  0.13100554  0.53428868  0.71900114     0.36500
N3233       N  0.13031380  0.54180777  0.70862009    -0.38300
N3234       N  0.20198350  0.59227299  0.70915279    -0.37700
C3235       C  0.31426582  0.69648309  0.88241728    -0.04400
C3236       C  0.29087045  0.67996416  0.89457859    -0.01500
C3237       C  0.29412622  0.68890008  0.92278264     0.03500
C3238       C  0.32079164  0.71447065  0.93898709    -0.04400
C3239       C  0.26355567  0.65417983  0.87754027     0.38100
C3240       C  0.26984271  0.67144612  0.93552216     0.36500
N3241       N  0.25053561  0.65761079  0.94568052    -0.38300
N3242       N  0.24178434  0.63366288  0.86393179    -0.37700
C3243       C  0.32607121  0.70119351  0.62406016    -0.04400
C3244       C  0.35317936  0.72751380  0.61174908    -0.01500
C3245       C  0.35669992  0.73651146  0.58354696     0.03500
C3246       C  0.33306053  0.71897628  0.56727125    -0.04400
C3247       C  0.30595923  0.69258498  0.57943485    -0.01500
C3248       C  0.30260491  0.68416366  0.60829970     0.03500
C3249       C  0.37745548  0.74542894  0.62824179     0.38100
C3250       C  0.28144517  0.67407152  0.56221976     0.38100
C3251       C  0.27533592  0.65895125  0.62289948     0.36500
N3252       N  0.25371463  0.63908734  0.63476998    -0.38300
N3253       N  0.26192042  0.65929148  0.54839751    -0.37700
N3254       N  0.39682995  0.75975858  0.64149292    -0.37700
C3255       C  0.83085383  0.24824779  0.94746123    -0.04400
C3256       C  0.82064012  0.24810055  0.93488444    -0.01500
C3257       C  0.82929705  0.25959582  0.90473570     0.03500
C3258       C  0.84810994  0.27118819  0.88701122    -0.04400
C3259       C  0.85830481  0.27132016  0.89963495    -0.01500
C3260       C  0.84987907  0.26009625  0.92984346     0.03500
C3261       C  0.80128926  0.23619404  0.95298812     0.38100
C3262       C  0.87734909  0.28283154  0.88141579     0.38100
C3263       C  0.86151494  0.26155860  0.94336626     0.36500
C3264       C  0.81973979  0.26050835  0.89250161     0.36500
N3265       N  0.87085415  0.26282195  0.95436017    -0.38300
N3266       N  0.81227919  0.26140990  0.88274236    -0.38300
N3267       N  0.89251461  0.29197744  0.86690141    -0.37700
N3268       N  0.78590671  0.22678322  0.96740788    -0.37700
C3269       C  0.84614423  0.27429305  0.62270444    -0.04400
C3270       C  0.81952292  0.25177860  0.60780949    -0.01500
C3271       C  0.81069427  0.23855994  0.57909350     0.03500
C3272       C  0.82851465  0.24794470  0.56489592    -0.04400
C3273       C  0.85515738  0.27051802  0.57950798    -0.01500
C3274       C  0.86387201  0.28349541  0.60843758     0.03500
C3275       C  0.80151650  0.24270965  0.62142227     0.38100
C3276       C  0.87344162  0.28009167  0.56501319     0.38100
C3277       C  0.89072928  0.30567163  0.62400271     0.36500
C3278       C  0.78338538  0.21547802  0.56376411     0.36500
N3279       N  0.91215282  0.32337287  0.63641935    -0.38300
N3280       N  0.76164048  0.19701363  0.55132684    -0.38300
N3281       N  0.88807930  0.28778724  0.55351246    -0.37700
N3282       N  0.78706444  0.23542078  0.63203009    -0.37700
C3283       C  0.08138970  0.48019977  0.74738456    -0.04400
C3284       C  0.05856627  0.45708145  0.72547932    -0.01500
C3285       C  0.03317748  0.43894259  0.72777544     0.03500
C3286       C  0.03082711  0.44447613  0.75131522    -0.04400
C3287       C  0.05399268  0.46803952  0.77287540    -0.01500
C3288       C  0.07921318  0.48586169  0.77086973     0.03500
C3289       C  0.06133378  0.45205068  0.70047375     0.38100
C3290       C  0.05199372  0.47407892  0.79708665     0.38100
C3291       C  0.10301955  0.51012562  0.79286641     0.36500
C3292       C  0.00906929  0.41372763  0.70705718     0.36500
N3293       N  0.12210951  0.52962015  0.81021184    -0.38300
N3294       N  0.98985287  0.39355822  0.69060909    -0.38300
N3295       N  0.05043989  0.47890069  0.81650831    -0.37700
N3296       N  0.06368299  0.44819487  0.68049692    -0.37700
C3297       C  0.48863040  0.11263697  0.92523267    -0.04400
C3298       C  0.49295360  0.12723110  0.92170825    -0.01500
C3299       C  0.49648750  0.13470800  0.89106816     0.03500
C3300       C  0.49072082  0.12345180  0.86308183    -0.04400
C3301       C  0.48765100  0.10990825  0.86654274    -0.01500
C3302       C  0.48777362  0.10560803  0.89755762     0.03500
C3303       C  0.49035163  0.13165910  0.94881218     0.38100
C3304       C  0.48235340  0.09849645  0.83877661     0.38100
C3305       C  0.48597363  0.09298154  0.90107306     0.36500
C3306       C  0.50623482  0.15418972  0.88855087     0.36500
N3307       N  0.48470814  0.08306705  0.90399160    -0.38300
N3308       N  0.51427353  0.16993526  0.88655755    -0.38300
N3309       N  0.47790758  0.08906105  0.81692340    -0.37700
N3310       N  0.48747708  0.13458961  0.96991067    -0.37700
C3311       C  0.49620045  0.12132879  0.53109279    -0.04400
C3312       C  0.49890953  0.13457558  0.53464107    -0.01500
C3313       C  0.50084405  0.14085100  0.56549619     0.03500
C3314       C  0.49536941  0.12997327  0.59321618    -0.04400
C3315       C  0.49411766  0.11803771  0.58987738    -0.01500
C3316       C  0.49645458  0.11558676  0.55934639     0.03500
C3317       C  0.49802068  0.14051179  0.50709705     0.38100
C3318       C  0.48879707  0.10656441  0.61694951     0.38100
C3319       C  0.49861045  0.10658915  0.55701509     0.36500
C3320       C  0.50905383  0.15909670  0.56833758     0.36500
N3321       N  0.50030807  0.09940322  0.55513431    -0.38300
N3322       N  0.51573124  0.17375477  0.57027122    -0.38300
N3323       N  0.48440954  0.09705238  0.63800554    -0.37700
N3324       N  0.49759107  0.14571816  0.48567475    -0.37700
N3325       N  0.94744463  0.65137521  0.27370227    -0.35200
N3326       N  0.95007935  0.65416793  0.24167700    -0.27400
C3327       C  0.97260655  0.68103290  0.23698149    -0.02600
C3328       C  0.98996448  0.69632242  0.26463053     0.06000
C3329       C  0.96853936  0.67672517  0.28642382     0.04100
H3330       H  0.98138266  0.68953718  0.21342522     0.09200
H3331       H  0.97327180  0.68094915  0.31208142     0.08000
C3332       C  0.77117810  0.12239704  0.02755923     0.04100
C3333       C  0.76026372  0.11596013  0.45759711     0.01600
C3334       C  0.75692133  0.12346603  0.46066500    -0.10600
C3335       C  0.77000196  0.13838724  0.00518195     0.04100
C3336       C  0.76817050  0.13013791  0.03155705    -0.10000
H3337       H  0.75269854  0.12417946  0.43951279     0.07200
H3338       H  0.76346661  0.12882656  0.05493579     0.07000
C3339       C  0.99990078  0.68860546  0.29038941    -0.02800
C3340       C  0.00673833  0.70188837  0.26609955     0.06000
C3341       C  0.00398190  0.69292158  0.23893400     0.04100
H3342       H  0.99724971  0.68837278  0.31510889     0.09200
H3343       H  0.00519553  0.69678504  0.21454084     0.08000
C3344       C  0.76224679  0.14197462  0.00827912     0.04100
C3345       C  0.78252010  0.16854938  0.00629730    -0.12100
C3346       C  0.73389884  0.11819092  0.01243859    -0.10000
H3347       H  0.80442310  0.18697465  0.00295919     0.09700
H3348       H  0.71812751  0.09759736  0.01357819     0.07000
C3349       C  0.82130858  0.51487630  0.36810717     0.36500
N3350       N  0.80839618  0.50864763  0.35251553    -0.38300
N3351       N  0.78409495  0.47869256  0.44159426    -0.37700
C3352       C  0.83983256  0.53757041  0.10840251     0.38100
N3353       N  0.81009674  0.50549958  0.02883203    -0.38300
N3354       N  0.82510036  0.52994461  0.11893335    -0.37700
C3355       C  0.54673346  0.89857922  0.26659875     0.38100
C3356       C  0.56988723  0.90010029  0.25887857     0.36500
N3357       N  0.56254760  0.88660337  0.27455095    -0.38300
N3358       N  0.53063446  0.88516347  0.28616121    -0.37700
C3359       C  0.78061164  0.12391478  0.41447075    -0.01500
C3360       C  0.77761612  0.11556307  0.38548310     0.03500
C3361       C  0.80713184  0.14821014  0.43311563     0.38100
C3362       C  0.80066869  0.13068424  0.37512798     0.36500
N3363       N  0.81908990  0.14278633  0.36687717    -0.38300
N3364       N  0.82820192  0.16750169  0.44814506    -0.37700
C3365       C  0.81865233  0.15747931  0.06209156     0.36500
N3366       N  0.84116105  0.18018672  0.05404531    -0.38300
N3367       N  0.98402894  0.69297263  0.75947559    -0.35200
N3368       N  0.98554437  0.69329229  0.72745514    -0.27400
C3369       C  0.01167414  0.72059093  0.72047164    -0.02600
C3370       C  0.02867195  0.73467705  0.74801512     0.06000
C3371       C  0.00932780  0.72008950  0.76988956     0.04100
H3372       H  0.01939768  0.72631795  0.69679247     0.09200
H3373       H  0.01471000  0.72530639  0.79541133     0.08000
C3374       C  0.76681801  0.12073183  0.51587606     0.04100
C3375       C  0.77679633  0.13009437  0.97034255     0.01600
C3376       C  0.77496873  0.13896675  0.97479075    -0.10600
C3377       C  0.75825085  0.12926029  0.49122935     0.04100
C3378       C  0.76342527  0.12809275  0.51855546    -0.10000
H3379       H  0.77520789  0.14420396  0.95415711     0.07200
H3380       H  0.76375737  0.13190702  0.54218236     0.07000
C3381       C  0.02521759  0.71525730  0.77913870    -0.02800
C3382       C  0.03666819  0.73083704  0.75261591     0.06000
C3383       C  0.02756549  0.71570040  0.72772824     0.04100
H3384       H  0.02576002  0.71896696  0.80311467     0.09200
H3385       H  0.03034383  0.71982100  0.70253864     0.08000
C3386       C  0.75160367  0.13389565  0.49588325     0.04100
C3387       C  0.77287326  0.16105258  0.49549298    -0.12100
C3388       C  0.72459955  0.11149010  0.50539815    -0.10000
H3389       H  0.79388673  0.17848992  0.48858492     0.09700
H3390       H  0.70811324  0.09046603  0.50561212     0.07000
C3391       C  0.85350191  0.55663653  0.88452750     0.36500
N3392       N  0.84409027  0.55581117  0.87836847    -0.38300
N3393       N  0.82019393  0.51881904  0.95647080    -0.37700
C3394       C  0.83626971  0.53437845  0.63027986     0.38100
N3395       N  0.78544679  0.47823723  0.57021190    -0.38300
N3396       N  0.82249489  0.52535514  0.64927088    -0.37700
C3397       C  0.55219420  0.90264959  0.74060858     0.38100
C3398       C  0.58837386  0.91878075  0.73917718     0.36500
N3399       N  0.58134278  0.90461382  0.75007423    -0.38300
N3400       N  0.53044960  0.88193040  0.75209505    -0.37700
C3401       C  0.79818771  0.13964096  0.92638160    -0.01500
C3402       C  0.79655003  0.13391791  0.89510741     0.03500
C3403       C  0.82260151  0.16028572  0.94754148     0.38100
C3404       C  0.81901275  0.14829958  0.88429511     0.36500
N3405       N  0.83684982  0.15965550  0.87565326    -0.38300
N3406       N  0.84196061  0.17657738  0.96454356    -0.37700
C3407       C  0.81748267  0.16831375  0.55668179     0.36500
N3408       N  0.83641385  0.19075362  0.54907162    -0.38300
loop_ 
_geom_bond_atom_site_label_1 
_geom_bond_atom_site_label_2 
_geom_bond_distance 
_geom_bond_site_symmetry_2 
_ccdc_geom_bond_type 
N1            N2   1.341       .  A
N1            C5   1.342       .  A
N1           Cu9   2.235       .  S
N2            C3   1.347       .  A
N2           Cu8   2.193   1_455  S
C3            C4   1.393       .  A
C3            H6   1.077       .  S
C4            C5   1.393       .  A
C4          C374   1.512       .  S
C5            H7   1.080       .  S
Cu8          N11   2.192   1_655  S
Cu9         N854   2.190       .  S
Cu10         N12   2.226       .  S
Cu10        N853   2.187       .  S
N11          N12   1.342       .  A
N11          C15   1.344       .  A
N12          C13   1.348       .  A
C13          C14   1.390       .  A
C13          H16   1.081       .  S
C14          C15   1.385       .  A
C14         C360   1.498       .  S
C15          H17   1.082   1_455  S
C18          C19   1.406       .  A
C18          C23   1.398   1_455  A
C18         C357   1.487       .  S
C19         C404   1.414       .  A
C19          H24   1.080       .  S
C20          C21   1.412       .  A
C20         C403   1.413   1_655  A
C20         C371   1.515   1_655  S
C21         C406   1.400       .  A
C21          H25   1.080       .  S
C22          C23   1.394       .  A
C22         C405   1.397       .  A
C22         C116   1.469       .  S
C23          H26   1.083       .  S
N27          N28   1.322       .  A
N27          C31   1.344       .  A
N27         Cu35   2.069       .  S
N28          C29   1.346       .  A
N28         Cu34   2.080       .  S
C29          C30   1.387       .  A
C29          H32   1.082       .  S
C30          C31   1.385       .  A
C30         C318   1.492       .  S
C31          H33   1.082       .  S
Cu34         N37   2.080       .  S
Cu35         N45   2.068       .  S
Cu36         N38   2.073       .  S
Cu36         N44   2.073       .  S
N37          N38   1.323       .  A
N37          C41   1.345       .  A
N38          C39   1.346       .  A
C39          C40   1.382       .  A
C39          H42   1.082       .  S
C40          C41   1.383       .  A
C40         C329   1.484       .  S
C41          H43   1.082       .  S
N44          N45   1.322       .  A
N44          C48   1.344       .  A
N45          C46   1.344       .  A
C46          C47   1.383       .  A
C46          H49   1.082       .  S
C47          C48   1.384       .  A
C47         C346   1.485       .  S
C48          H50   1.082       .  S
C51          C56   1.408       .  A
C51         C436   1.409       .  A
C51         C315   1.487       .  S
C52          C53   1.406       .  A
C52         C435   1.407   1_554  A
C52          H57   1.083   1_554  S
C53          C54   1.402       .  A
C53         C332   1.484       .  S
C54          C55   1.398       .  A
C54          H58   1.084       .  S
C55         C440   1.397   1_554  A
C55         C189   1.465       .  S
C56         C439   1.402       .  A
C56          H59   1.084       .  S
N60          N61   1.323       .  A
N60          C64   1.341       .  A
N60         Cu68   2.062       .  S
N61          C62   1.349       .  A
N61         Cu67   2.091       .  S
C62          C63   1.387       .  A
C62          H65   1.082       .  S
C63          C64   1.379       .  A
C63         C303   1.484       .  S
C64          H66   1.082       .  S
Cu67         N70   2.091       .  S
Cu68         N78   2.061       .  S
Cu69         N71   2.065       .  S
Cu69         N77   2.065       .  S
N70          N71   1.323       .  A
N70          C74   1.349       .  A
N71          C72   1.341       .  A
C72          C73   1.380       .  A
C72          H75   1.082       .  S
C73          C74   1.386       .  A
C73         C295   1.483       .  S
C74          H76   1.082       .  S
N77          N78   1.319       .  A
N77          C81   1.345       .  A
N78          C79   1.342       .  A
C79          C80   1.384       .  A
C79          H82   1.082       .  S
C80          C81   1.384       .  A
C80         C285   1.484       .  S
C81          H83   1.082       .  S
C84         C860   1.404       .  A
C84         C903   1.403   1_554  A
C84          H85   1.084       .  S
N86          N87   1.323       .  A
N86          C90   1.341       .  A
N86         Cu94   2.117       .  S
N87          C88   1.345       .  A
N87         Cu93   2.033       .  S
C88          C89   1.378       .  A
C88          H91   1.082       .  S
C89          C90   1.380       .  A
C89         C263   1.482       .  S
C90          H92   1.081       .  S
Cu93         N96   2.031       .  S
Cu94        N104   2.186   1_655  S
Cu95         N97   2.127       .  S
Cu95        N103   2.190   1_655  S
N96          N97   1.320       .  A
N96         C100   1.346       .  A
N97          C98   1.346       .  A
C98          C99   1.386       .  A
C98         H101   1.071       .  S
C99         C100   1.380       .  A
C99         C274   1.488       .  S
C100        H102   1.082       .  S
N103        N104   1.280       .  A
N103        C869   1.348       .  A
N104        C867   1.349       .  A
C105        C106   1.409   1_545  A
C105        C110   1.410   1_554  A
C105        C277   1.504       .  S
C106        C107   1.401       .  A
C106        H111   1.083       .  S
C107        C492   1.396   1_554  A
C107        C118   1.478   1_554  S
C108        C109   1.407       .  A
C108        C491   1.397   1_545  A
C108        H112   1.083   1_545  S
C109        C494   1.411       .  A
C109        C266   1.502       .  S
C110        C493   1.413       .  A
C110        H113   1.083       .  S
C114        C119   1.410       .  A
C114        C499   1.406   1_565  A
C114        C149   1.464       .  S
C115        C116   1.394       .  A
C115        C498   1.406   1_545  A
C115        H120   1.084       .  S
C116        C501   1.394       .  A
C117        C118   1.402   1_544  A
C117        C500   1.395       .  A
C117        H121   1.084       .  S
C118        C119   1.402       .  A
C119        H122   1.083       .  S
N123        N124   1.321       .  A
N123        C127   1.344       .  A
N123       Cu131   2.075       .  S
N124        C125   1.343       .  A
N124       Cu130   2.072       .  S
C125        C126   1.389       .  A
C125        H128   1.081       .  S
C126        C127   1.390       .  A
C126        C249   1.499       .  S
C127        H129   1.081       .  S
Cu130       N133   2.072       .  S
Cu131       N141   2.076       .  S
Cu132       N134   2.050       .  S
Cu132       N140   2.050       .  S
N133        N134   1.321       .  A
N133        C137   1.347       .  A
N134        C135   1.340       .  A
C135        C136   1.378       .  A
C135        H138   1.082       .  S
C136        C137   1.384       .  A
C136        C235   1.479       .  S
C137        H139   1.082       .  S
N140        N141   1.321       .  A
N140        C144   1.343       .  A
N141        C142   1.343       .  A
C142        C143   1.385       .  A
C142        H145   1.082       .  S
C143        C144   1.380       .  A
C143        C221   1.483       .  S
C144        H146   1.082       .  S
C147        C148   1.404       .  A
C147        C152   1.407   1_554  A
C147        C252   1.497       .  S
C148        C149   1.396   1_554  A
C148        H153   1.084       .  S
C149        C534   1.398       .  A
C150        C151   1.398       .  A
C150        C533   1.393       .  A
C150        H154   1.085       .  S
C151        C536   1.406       .  A
C151        C238   1.483       .  S
C152        C535   1.404       .  A
C152        H155   1.083       .  S
N156        N157   1.322       .  A
N156        C160   1.342       .  A
N156       Cu164   2.056       .  S
N157        C158   1.347       .  A
N157       Cu163   2.081       .  S
C158        C159   1.384       .  A
C158        H161   1.082       .  S
C159        C160   1.379       .  A
C159        C210   1.480       .  S
C160        H162   1.082       .  S
Cu163       N166   2.081       .  S
Cu164       N174   2.056       .  S
Cu165       N167   2.075       .  S
Cu165       N173   2.074       .  S
N166        N167   1.324       .  A
N166        C170   1.346       .  A
N167        C168   1.345       .  A
C168        C169   1.380       .  A
C168        H171   1.082       .  S
C169        C170   1.382       .  A
C169        C196   1.480       .  S
C170        H172   1.082       .  S
N173        N174   1.320       .  A
N173        C177   1.344       .  A
N174        C175   1.341       .  A
C175        C176   1.384       .  A
C175        H178   1.082       .  S
C176        C177   1.389       .  A
C176        C224   1.492       .  S
C177        H179   1.081       .  S
C180        C181   1.401       .  A
C180        C185   1.400       .  A
C180        C193   1.479       .  S
C181        C182   1.400       .  A
C181        H186   1.084       .  S
C182        C567   1.403   1_554  A
C182        C191   1.468       .  S
C183        C184   1.398       .  A
C183        C566   1.398       .  A
C183        H187   1.084       .  S
C184        C569   1.403       .  A
C184        C207   1.482       .  S
C185        C568   1.400   1_554  A
C185        H188   1.084       .  S
C189        C190   1.397       .  A
C189        C789   1.402       .  A
C190        C191   1.395       .  A
C190        H192   1.085       .  S
C191        C790   1.402       .  A
C193        C194   1.410       .  A
C193        C198   1.409       .  A
C194        C195   1.410       .  A
C194        C199   1.451       .  S
C195        C196   1.412       .  A
C195        C202   1.450       .  S
C196        C197   1.412       .  A
C197        C198   1.409       .  A
C197        C200   1.450       .  S
C198        C201   1.451       .  S
C199        N206   1.157       .  T
C200        N205   1.157   1_545  T
C201        N203   1.157       .  T
C202        N204   1.157       .  T
C207        C208   1.411       .  A
C207        C212   1.412       .  A
C208        C209   1.409       .  A
C208        C213   1.450       .  S
C209        C210   1.413       .  A
C209        C216   1.452       .  S
C210        C211   1.411       .  A
C211        C212   1.410       .  A
C211        C214   1.450       .  S
C212        C215   1.451       .  S
C213        N220   1.157       .  T
C214        N219   1.157   1_545  T
C215        N217   1.157       .  T
C216        N218   1.157       .  T
C221        C222   1.408       .  A
C221        C226   1.411   1_665  A
C222        C223   1.408   1_655  A
C222        C227   1.448       .  S
C223        C224   1.417   1_565  A
C223        C230   1.449       .  S
C224        C225   1.418       .  A
C225        C226   1.411       .  A
C225        C228   1.451       .  S
C226        C229   1.452       .  S
C227        N234   1.156       .  T
C228        N233   1.157       .  T
C229        N231   1.157       .  T
C230        N232   1.157       .  T
C235        C236   1.411       .  A
C235        C240   1.413       .  A
C236        C237   1.411       .  A
C236        C241   1.450       .  S
C237        C238   1.410       .  A
C237        C244   1.449       .  S
C238        C239   1.415       .  A
C239        C240   1.407       .  A
C239        C242   1.453       .  S
C240        C243   1.453       .  S
C241        N248   1.157       .  T
C242        N247   1.158   1_565  T
C243        N245   1.158       .  T
C244        N246   1.157       .  T
C249        C250   1.419       .  A
C249        C254   1.419       .  A
C250        C251   1.409       .  A
C250        C255   1.451       .  S
C251        C252   1.414       .  A
C251        C258   1.453       .  S
C252        C253   1.417       .  A
C253        C254   1.412       .  A
C253        C256   1.452       .  S
C254        C257   1.452       .  S
C255        N262   1.158       .  T
C256        N261   1.158   1_554  T
C257        N259   1.158       .  T
C258        N260   1.157       .  T
C263        C264   1.408       .  A
C263        C268   1.409       .  A
C264        C265   1.403       .  A
C264        C269   1.454       .  S
C265        C266   1.422       .  A
C265        C271   1.449       .  S
C266        C267   1.419       .  A
C267        C268   1.415       .  A
C267        C270   1.449       .  S
C268        C877   1.450       .  S
C269        N273   1.157       .  T
C270        N879   1.157       .  T
C271        N272   1.156       .  T
C274        C275   1.412       .  A
C274        C279   1.408       .  A
C275        C276   1.419       .  A
C275        C880   1.449       .  S
C276        C277   1.418       .  A
C276        C282   1.449       .  S
C277        C278   1.418       .  A
C278        C279   1.403       .  A
C278        C280   1.442       .  S
C279        C281   1.454       .  S
C280        N284   1.153       .  T
C281        N283   1.157       .  T
C282        N881   1.157       .  T
C285        C286   1.416       .  A
C285        C290   1.413       .  A
C286        C287   1.407       .  A
C286        C291   1.452       .  S
C287        C288   1.410       .  A
C287        C292   1.452       .  S
C288        C289   1.410       .  A
C288        C343   1.492       .  S
C289        C290   1.411       .  A
C289        C883   1.450       .  S
C290        C884   1.450       .  S
C291        N294   1.157       .  T
C292        N293   1.157       .  T
C295        C296   1.413       .  A
C295        C888   1.412       .  A
C296        C297   1.406       .  A
C296        C299   1.452       .  S
C297        C298   1.410       .  A
C297        C300   1.452       .  S
C298        C887   1.412       .  A
C298        C861   1.483       .  S
C299        N302   1.157       .  T
C300        N301   1.157       .  T
C303        C304   1.412       .  A
C303        C308   1.415       .  A
C304        C305   1.412       .  A
C304        C309   1.450       .  S
C305        C306   1.411       .  A
C305        C893   1.451       .  S
C306        C307   1.410       .  A
C306        C860   1.482       .  S
C307        C308   1.409       .  A
C307        C310   1.451       .  S
C308        C311   1.452       .  S
C309        N314   1.157       .  T
C310        N313   1.157       .  T
C311        N312   1.157       .  T
C315        C316   1.411       .  A
C315        C320   1.410       .  A
C316        C317   1.412       .  A
C316        C321   1.451       .  S
C317        C318   1.416       .  A
C317        C324   1.451       .  S
C318        C319   1.416       .  A
C319        C320   1.412       .  A
C319        C322   1.451       .  S
C320        C323   1.450       .  S
C321        N328   1.157       .  T
C322        N327   1.157       .  T
C323        N325   1.157       .  T
C324        N326   1.157       .  T
C329        C330   1.412       .  A
C329        C334   1.413       .  A
C330        C331   1.411       .  A
C330        C335   1.451       .  S
C331        C332   1.412       .  A
C331        C338   1.451       .  S
C332        C333   1.410       .  A
C333        C334   1.411       .  A
C333        C336   1.450       .  S
C334        C337   1.450       .  S
C335        N342   1.157       .  T
C336        N341   1.157       .  T
C337        N339   1.157       .  T
C338        N340   1.157       .  T
C343        C344   1.410       .  A
C343        C348   1.410       .  A
C344        C345   1.409       .  A
C344        C349   1.451       .  S
C345        C346   1.414       .  A
C345        C352   1.451       .  S
C346        C347   1.415       .  A
C347        C348   1.409       .  A
C347        C350   1.451       .  S
C348        C351   1.451       .  S
C349        N356   1.157       .  T
C350        N355   1.157       .  T
C351        N353   1.157       .  T
C352        N354   1.157       .  T
C357        C358   1.414   1_455  A
C357        C362   1.406       .  A
C358        C359   1.409       .  A
C358        C363   1.454       .  S
C359        C360   1.417   1_655  A
C359        C366   1.451       .  S
C360        C361   1.421       .  A
C361        C362   1.415       .  A
C361        C364   1.450       .  S
C362        C365   1.450       .  S
C363        N370   1.157       .  T
C364        N369   1.157       .  T
C365        N367   1.157       .  T
C366        N368   1.157       .  T
C371        C372   1.423       .  A
C371        C376   1.420       .  A
C372        C373   1.409       .  A
C372        C377   1.450       .  S
C373        C374   1.414       .  A
C373        C380   1.452       .  S
C374        C375   1.422       .  A
C375        C376   1.418       .  A
C375        C378   1.449   1_455  S
C376        C379   1.453   1_455  S
C377        N384   1.157       .  T
C378        N383   1.158       .  T
C379        N381   1.157       .  T
C380        N382   1.157       .  T
N385        N386   1.342       .  A
N385        C389   1.341   1_655  A
N385       Cu393   2.227       .  S
N386        C387   1.349   1_655  A
N386       Cu392   2.202       .  S
C387        C388   1.393       .  A
C387        H390   1.079       .  S
C388        C389   1.389       .  A
C388        C758   1.508       .  S
C389        H391   1.080       .  S
Cu392       N395   2.202       .  S
Cu393       N896   2.182   1_655  S
Cu394       N396   2.221   1_655  S
Cu394       N895   2.180   1_655  S
N395        N396   1.342   1_655  A
N395        C399   1.347   1_655  A
N396        C397   1.346       .  A
C397        C398   1.388       .  A
C397        H400   1.081       .  S
C398        C399   1.390       .  A
C398        C744   1.502       .  S
C399        H401   1.081   1_455  S
C402        C403   1.404   1_656  A
C402        C407   1.397       .  A
C402        C741   1.486   1_655  S
C403        H408   1.081       .  S
C404        C405   1.411   1_455  A
C404        C755   1.517       .  S
C405        H409   1.081       .  S
C406        C407   1.394   1_554  A
C406        C500   1.472       .  S
C407        H410   1.082       .  S
N411        N412   1.323       .  A
N411        C415   1.339       .  A
N411       Cu419   2.049       .  S
N412        C413   1.351       .  A
N412       Cu418   2.097       .  S
C413        C414   1.388       .  A
C413        H416   1.082       .  S
C414        C415   1.374       .  A
C414        C702   1.480       .  S
C415        H417   1.082       .  S
Cu418       N421   2.097       .  S
Cu419       N429   2.049       .  S
Cu420       N422   2.055       .  S
Cu420       N428   2.055       .  S
N421        N422   1.324       .  A
N421        C425   1.349       .  A
N422        C423   1.340       .  A
C423        C424   1.375       .  A
C423        H426   1.082       .  S
C424        C425   1.386       .  A
C424        C713   1.479       .  S
C425        H427   1.082       .  S
N428        N429   1.318       .  A
N428        C432   1.344       .  A
N429        C430   1.340       .  A
C430        C431   1.380       .  A
C430        H433   1.082       .  S
C431        C432   1.383       .  A
C431        C730   1.478       .  S
C432        H434   1.082       .  S
C435        C440   1.398       .  A
C435        C699   1.483       .  S
C436        C437   1.406       .  A
C436        H441   1.083       .  S
C437        C438   1.393       .  A
C437        C716   1.486       .  S
C438        C439   1.392       .  A
C438        H442   1.085       .  S
C439        C573   1.466       .  S
C440        H443   1.085       .  S
N444        N445   1.324       .  A
N444        C448   1.343       .  A
N444       Cu452   2.071       .  S
N445        C446   1.348       .  A
N445       Cu451   2.086       .  S
C446        C447   1.385       .  A
C446        H449   1.082       .  S
C447        C448   1.382       .  A
C447        C687   1.487       .  S
C448        H450   1.082       .  S
Cu451       N454   2.086       .  S
Cu452       N462   2.068       .  S
Cu453       N455   2.059       .  S
Cu453       N461   2.060       .  S
N454        N455   1.322       .  A
N454        C458   1.348       .  A
N455        C456   1.341       .  A
C456        C457   1.381       .  A
C456        H459   1.082       .  S
C457        C458   1.387       .  A
C457        C679   1.487       .  S
C458        H460   1.082       .  S
N461        N462   1.320       .  A
N461        C465   1.344       .  A
N462        C463   1.343       .  A
C463        C464   1.386       .  A
C463        H466   1.082       .  S
C464        C465   1.383       .  A
C464        C669   1.487       .  S
C465        H467   1.082       .  S
C468        C902   1.404       .  A
C468        C861   1.401       .  A
C468        H469   1.084       .  S
N470        N471   1.322       .  A
N470        C474   1.344       .  A
N470       Cu478   2.119       .  S
N471        C472   1.343       .  A
N471       Cu477   2.023       .  S
C472        C473   1.376       .  A
C472        H475   1.082       .  S
C473        C474   1.381       .  A
C473        C647   1.479       .  S
C474        H476   1.067       .  S
Cu477       N480   2.020       .  S
Cu478       N488   2.187   1_655  S
Cu479       N481   2.125       .  S
Cu479       N487   2.186   1_655  S
N480        N481   1.320       .  A
N480        C484   1.344       .  A
N481        C482   1.344       .  A
C482        C483   1.384       .  A
C482        H485   1.076       .  S
C483        C484   1.379       .  A
C483        C658   1.484       .  S
C484        H486   1.082       .  S
N487        N488   1.281       .  A
N487        C911   1.347       .  A
N488        C909   1.349       .  A
C489        C490   1.405       .  A
C489        C494   1.408       .  A
C489        C661   1.495       .  S
C490        C491   1.398   1_545  A
C490        H495   1.084   1_545  S
C491        C502   1.473       .  S
C492        C493   1.406   1_565  A
C492        H496   1.083       .  S
C493        C650   1.501       .  S
C494        H497   1.083       .  S
C498        C503   1.409       .  A
C498        C533   1.460       .  S
C499        C500   1.393   1_556  A
C499        H504   1.084       .  S
C501        C502   1.399   1_545  A
C501        H505   1.083       .  S
C502        C503   1.399       .  A
C503        H506   1.083       .  S
N507        N508   1.321       .  A
N507        C511   1.341       .  A
N507       Cu515   2.066       .  S
N508        C509   1.347       .  A
N508       Cu514   2.079       .  S
C509        C510   1.390       .  A
C509        H512   1.081       .  S
C510        C511   1.385       .  A
C510        C633   1.496       .  S
C511        H513   1.082       .  S
Cu514       N517   2.079       .  S
Cu515       N525   2.066       .  S
Cu516       N518   2.072       .  S
Cu516       N524   2.073       .  S
N517        N518   1.324       .  A
N517        C521   1.348       .  A
N518        C519   1.341       .  A
C519        C520   1.382       .  A
C519        H522   1.082       .  S
C520        C521   1.384       .  A
C520        C619   1.485       .  S
C521        H523   1.082       .  S
N524        N525   1.320       .  A
N524        C528   1.345       .  A
N525        C526   1.344       .  A
C526        C527   1.385       .  A
C526        H529   1.082       .  S
C527        C528   1.388       .  A
C527        C605   1.493   1_655  S
C528        H530   1.082       .  S
C531        C532   1.406       .  A
C531        C536   1.410       .  A
C531        C636   1.501       .  S
C532        C533   1.395       .  A
C532        H537   1.084       .  S
C534        C535   1.403       .  A
C534        H538   1.084       .  S
C535        C622   1.485       .  S
C536        H539   1.083       .  S
N540        N541   1.322       .  A
N540        C544   1.347       .  A
N540       Cu548   2.080       .  S
N541        C542   1.343       .  A
N541       Cu547   2.067       .  S
C542        C543   1.381       .  A
C542        H545   1.082       .  S
C543        C544   1.385       .  A
C543        C594   1.484       .  S
C544        H546   1.082       .  S
Cu547       N550   2.067       .  S
Cu548       N558   2.081       .  S
Cu549       N551   2.076       .  S
Cu549       N557   2.077       .  S
N550        N551   1.322       .  A
N550        C554   1.344       .  A
N551        C552   1.346       .  A
C552        C553   1.382       .  A
C552        H555   1.082       .  S
C553        C554   1.380       .  A
C553        C580   1.480       .  S
C554        H556   1.082       .  S
N557        N558   1.324       .  A
N557        C561   1.346       .  A
N558        C559   1.345       .  A
C559        C560   1.382       .  A
C559        H562   1.082       .  S
C560        C561   1.382       .  A
C560        C608   1.482       .  S
C561        H563   1.082       .  S
C564        C565   1.404       .  A
C564        C569   1.405       .  A
C564        C577   1.485       .  S
C565        C566   1.402       .  A
C565        H570   1.084       .  S
C566        C575   1.467       .  S
C567        C568   1.402       .  A
C567        H571   1.084       .  S
C568        C591   1.483       .  S
C569        H572   1.084       .  S
C573        C831   1.401       .  A
C573        C574   1.400       .  A
C574        C575   1.395       .  A
C574        H576   1.085       .  S
C575        C832   1.398       .  A
C577        C578   1.413       .  A
C577        C582   1.412       .  A
C578        C579   1.410       .  A
C578        C583   1.450       .  S
C579        C580   1.410       .  A
C579        C586   1.451       .  S
C580        C581   1.411       .  A
C581        C582   1.411       .  A
C581        C584   1.450       .  S
C582        C585   1.450       .  S
C583        N590   1.157       .  T
C584        N589   1.157       .  T
C585        N587   1.157       .  T
C586        N588   1.157       .  T
C591        C592   1.412       .  A
C591        C596   1.410       .  A
C592        C593   1.412       .  A
C592        C597   1.451       .  S
C593        C594   1.413       .  A
C593        C600   1.450       .  S
C594        C595   1.413       .  A
C595        C596   1.409       .  A
C595        C598   1.450       .  S
C596        C599   1.451       .  S
C597        N604   1.157       .  T
C598        N603   1.157       .  T
C599        N601   1.157       .  T
C600        N602   1.157       .  T
C605        C606   1.417   1_455  A
C605        C610   1.418   1_565  A
C606        C607   1.410   1_655  A
C606        C611   1.451       .  S
C607        C608   1.409   1_565  A
C607        C614   1.450       .  S
C608        C609   1.409       .  A
C609        C610   1.412       .  A
C609        C612   1.451       .  S
C610        C613   1.451       .  S
C611        N618   1.157       .  T
C612        N617   1.157       .  T
C613        N615   1.157       .  T
C614        N616   1.157       .  T
C619        C620   1.413       .  A
C619        C624   1.414       .  A
C620        C621   1.413       .  A
C620        C625   1.450       .  S
C621        C622   1.411       .  A
C621        C628   1.450       .  S
C622        C623   1.414       .  A
C623        C624   1.407       .  A
C623        C626   1.453       .  S
C624        C627   1.452       .  S
C625        N632   1.157       .  T
C626        N631   1.157       .  T
C627        N629   1.157       .  T
C628        N630   1.157       .  T
C633        C634   1.415       .  A
C633        C638   1.417       .  A
C634        C635   1.410       .  A
C634        C639   1.451       .  S
C635        C636   1.417       .  A
C635        C642   1.453       .  S
C636        C637   1.418       .  A
C637        C638   1.412       .  A
C637        C640   1.452       .  S
C638        C641   1.452       .  S
C639        N646   1.158       .  T
C640        N645   1.158       .  T
C641        N643   1.158       .  T
C642        N644   1.157       .  T
C647        C648   1.407       .  A
C647        C652   1.409       .  A
C648        C649   1.404       .  A
C648        C653   1.455       .  S
C649        C650   1.423       .  A
C649        C655   1.448       .  S
C650        C651   1.418       .  A
C651        C652   1.414       .  A
C651        C654   1.449       .  S
C652        C919   1.450       .  S
C653        N657   1.157       .  T
C654        N921   1.157       .  T
C655        N656   1.155       .  T
C658        C659   1.412       .  A
C658        C663   1.409       .  A
C659        C660   1.417       .  A
C659        C922   1.449       .  S
C660        C661   1.416       .  A
C660        C666   1.448       .  S
C661        C662   1.414       .  A
C662        C663   1.399       .  A
C662        C664   1.444       .  S
C663        C665   1.453       .  S
C664        N668   1.154       .  T
C665        N667   1.157       .  T
C666        N923   1.157   1_545  T
C669        C670   1.419       .  A
C669        C674   1.415       .  A
C670        C671   1.407       .  A
C670        C675   1.451       .  S
C671        C672   1.406       .  A
C671        C676   1.452       .  S
C672        C673   1.409       .  A
C672        C727   1.488       .  S
C673        C674   1.410       .  A
C673        C925   1.451       .  S
C674        C926   1.450       .  S
C675        N678   1.157       .  T
C676        N677   1.157       .  T
C679        C680   1.417       .  A
C679        C930   1.413       .  A
C680        C681   1.408       .  A
C680        C683   1.452       .  S
C681        C682   1.410       .  A
C681        C684   1.452       .  S
C682        C929   1.412       .  A
C682        C903   1.484       .  S
C683        N686   1.157       .  T
C684        N685   1.157       .  T
C687        C688   1.413       .  A
C687        C692   1.414       .  A
C688        C689   1.414       .  A
C688        C693   1.451       .  S
C689        C690   1.414       .  A
C689        C935   1.451       .  S
C690        C691   1.412       .  A
C690        C902   1.488       .  S
C691        C692   1.408       .  A
C691        C694   1.452       .  S
C692        C695   1.451       .  S
C693        N698   1.157       .  T
C694        N697   1.157       .  T
C695        N696   1.157       .  T
C699        C700   1.414       .  A
C699        C704   1.410       .  A
C700        C701   1.411       .  A
C700        C705   1.451       .  S
C701        C702   1.411       .  A
C701        C708   1.451       .  S
C702        C703   1.413       .  A
C703        C704   1.409       .  A
C703        C706   1.451       .  S
C704        C707   1.451       .  S
C705        N712   1.157       .  T
C706        N711   1.157       .  T
C707        N709   1.157       .  T
C708        N710   1.157       .  T
C713        C714   1.408       .  A
C713        C718   1.413       .  A
C714        C715   1.410       .  A
C714        C719   1.451       .  S
C715        C716   1.418       .  A
C715        C722   1.452       .  S
C716        C717   1.411       .  A
C717        C718   1.409       .  A
C717        C720   1.451       .  S
C718        C721   1.451       .  S
C719        N726   1.157       .  T
C720        N725   1.157       .  T
C721        N723   1.157       .  T
C722        N724   1.158       .  T
C727        C728   1.409       .  A
C727        C732   1.409       .  A
C728        C729   1.408       .  A
C728        C733   1.451       .  S
C729        C730   1.414       .  A
C729        C736   1.451       .  S
C730        C731   1.412       .  A
C731        C732   1.407       .  A
C731        C734   1.451       .  S
C732        C735   1.450       .  S
C733        N740   1.157       .  T
C734        N739   1.157       .  T
C735        N737   1.157       .  T
C736        N738   1.157       .  T
C741        C742   1.412   1_455  A
C741        C746   1.405       .  A
C742        C743   1.409       .  A
C742        C747   1.455       .  S
C743        C744   1.420   1_655  A
C743        C750   1.451       .  S
C744        C745   1.422       .  A
C745        C746   1.416       .  A
C745        C748   1.450       .  S
C746        C749   1.450       .  S
C747        N754   1.157       .  T
C748        N753   1.157       .  T
C749        N751   1.157       .  T
C750        N752   1.157       .  T
C755        C756   1.424       .  A
C755        C760   1.421       .  A
C756        C757   1.411       .  A
C756        C761   1.450       .  S
C757        C758   1.416       .  A
C757        C764   1.453       .  S
C758        C759   1.419       .  A
C759        C760   1.416       .  A
C759        C762   1.449   1_455  S
C760        C763   1.453   1_455  S
C761        N768   1.158       .  T
C762        N767   1.158       .  T
C763        N765   1.157       .  T
C764        N766   1.158       .  T
N769        N770   1.345       .  A
N769        C773   1.345       .  A
N769       Cu946   2.184       .  S
N770        C771   1.345       .  A
N770       Cu945   2.185       .  S
C771        C772   1.391       .  A
C771        H774   1.082       .  S
C772        C773   1.391       .  A
C772        C784   1.538       .  S
C773        H775   1.082       .  S
C776       C1020   1.407       .  A
C776        C780   1.403       .  A
C776       C1242   1.486       .  S
C777       C1404   1.404       .  A
C777        C778   1.397       .  A
C777       C1234   1.484       .  S
C778        C821   1.394       .  A
C778        H781   1.085       .  S
C779        C820   1.400   1_554  A
C779        C780   1.400       .  A
C779        C788   1.469       .  S
C780        H782   1.084       .  S
C783       N1040   1.347       .  A
C783        C784   1.411       .  A
C783        H786   1.082       .  S
C784        C785   1.411       .  A
C785       N1039   1.346       .  A
C785        H787   1.082       .  S
C788        C789   1.403       .  A
C788        C790   1.405       .  A
C789        H791   1.084       .  S
C790        H792   1.084       .  S
C793       C1204   1.451       .  S
C793        N794   1.158       .  T
N795       C1206   1.157       .  T
C796       C1211   1.449       .  S
C796        N798   1.157       .  T
N797       C1218   1.157       .  T
C799       C1225   1.450   1_655  S
C799        N802   1.157       .  T
C800       C1226   1.450   1_655  S
C800        N801   1.157       .  T
C803       C1234   1.411       .  A
C803        C804   1.410       .  A
C803        C805   1.450       .  S
C804       C1231   1.411       .  A
C804        C806   1.450       .  S
C805        N808   1.157       .  T
C806        N807   1.157       .  T
C809       C1241   1.450       .  S
C809        N810   1.157       .  T
N811        N812   1.345       .  A
N811        C815   1.345       .  A
N811      Cu1330   2.180       .  S
N812        C813   1.345       .  A
N812      Cu1329   2.185       .  S
C813        C814   1.392       .  A
C813        H816   1.082       .  S
C814        C815   1.392       .  A
C814        C826   1.539       .  S
C815        H817   1.082       .  S
C818       C1404   1.409       .  A
C818        C822   1.409       .  A
C818       C1626   1.497       .  S
C819       C1020   1.404   1_556  A
C819        C820   1.401       .  A
C819       C1618   1.487       .  S
C820        H823   1.084       .  S
C821        C822   1.402       .  A
C821        C830   1.466       .  S
C822        H824   1.084       .  S
C825       N1424   1.348       .  A
C825        C826   1.410       .  A
C825        H828   1.082       .  S
C826        C827   1.410       .  A
C827       N1423   1.347       .  A
C827        H829   1.082       .  S
C830        C831   1.403       .  A
C830        C832   1.405       .  A
C831        H833   1.084       .  S
C832        H834   1.084       .  S
C835       C1588   1.450       .  S
C835        N836   1.157       .  T
N837       C1590   1.157       .  T
C838       C1595   1.449       .  S
C838        N840   1.157       .  T
N839       C1602   1.157       .  T
C841       C1609   1.450   1_655  S
C841        N844   1.157       .  T
C842       C1610   1.450       .  S
C842        N843   1.157   1_455  T
C845       C1618   1.409       .  A
C845        C846   1.415       .  A
C845        C847   1.450       .  S
C846       C1615   1.419       .  A
C846        C848   1.450       .  S
C847        N850   1.157       .  T
C848        N849   1.157       .  T
C851       C1625   1.449       .  S
C851        N852   1.157       .  T
N853        N854   1.346       .  A
N853        C857   1.345       .  A
N854        C855   1.345       .  A
C855        C856   1.392       .  A
C855        H858   1.082       .  S
C856        C857   1.391       .  A
C856        C868   1.540       .  S
C857        H859   1.082       .  S
C860        C864   1.402       .  A
C861        C862   1.401       .  A
C862        C905   1.402       .  A
C862        H865   1.084       .  S
C863        C904   1.399   1_554  A
C863        C864   1.399       .  A
C863        C872   1.466       .  S
C864        H866   1.084       .  S
C867        C868   1.410       .  A
C867        H870   1.082       .  S
C868        C869   1.409       .  A
C869        H871   1.082       .  S
C872        C873   1.394       .  A
C872        C874   1.398       .  A
C873       C1125   1.401       .  A
C873        H875   1.084       .  S
C874       C1127   1.403       .  A
C874        H876   1.084       .  S
C877        N878   1.157       .  T
C880        N882   1.157       .  T
C883        N886   1.157       .  T
C884        N885   1.157       .  T
C887        C888   1.415       .  A
C887        C889   1.450       .  S
C888        C890   1.450       .  S
C889        N892   1.157       .  T
C890        N891   1.157       .  T
C893        N894   1.157       .  T
N895        N896   1.345       .  A
N895        C899   1.344       .  A
N896        C897   1.345       .  A
C897        C898   1.392       .  A
C897        H900   1.082       .  S
C898        C899   1.391       .  A
C898        C910   1.538       .  S
C899        H901   1.082       .  S
C902        C906   1.406       .  A
C903        C904   1.400       .  A
C904        H907   1.084       .  S
C905        C906   1.401       .  A
C905        C914   1.473       .  S
C906        H908   1.084       .  S
C909        C910   1.410       .  A
C909        H912   1.082       .  S
C910        C911   1.408       .  A
C911        H913   1.082       .  S
C914        C915   1.394       .  A
C914        C916   1.405       .  A
C915       C1509   1.397       .  A
C915        H917   1.085       .  S
C916       C1511   1.410       .  A
C916        H918   1.084       .  S
C919        N920   1.157       .  T
C922        N924   1.157       .  T
C925        N928   1.157       .  T
C926        N927   1.157       .  T
C929        C930   1.413       .  A
C929        C931   1.450       .  S
C930        C932   1.450       .  S
C931        N934   1.157       .  T
C932        N933   1.157       .  T
C935        N936   1.157       .  T
N937        N938   1.340       .  A
N937        C941   1.346       .  A
N937       Cu945   2.225       .  S
N938        C939   1.343       .  A
N938       Cu944   2.181       .  S
C939        C940   1.388       .  A
C939        H942   1.079       .  S
C940        C941   1.396       .  A
C940       C1310   1.510       .  S
C941        H943   1.080       .  S
Cu944       N947   2.181       .  S
Cu946       N948   2.227       .  S
N947        N948   1.340       .  A
N947        C951   1.343       .  A
N948        C949   1.341       .  A
C949        C950   1.393       .  A
C949        H952   1.075       .  S
C950        C951   1.388       .  A
C950       C1296   1.505       .  S
C951        H953   1.079       .  S
C954        C955   1.412       .  A
C954        C959   1.403       .  A
C954       C1293   1.498       .  S
C955       C1340   1.417       .  A
C955        H960   1.075       .  S
C956       C1339   1.410   1_554  A
C956        C957   1.413       .  A
C956       C1307   1.514       .  S
C957       C1342   1.400   1_554  A
C957        H961   1.083       .  S
C958       C1341   1.397       .  A
C958        C959   1.393       .  A
C958       C1052   1.475       .  S
C959        H962   1.084       .  S
N963        N964   1.322       .  A
N963        C967   1.341       .  A
N963       Cu971   2.065       .  S
N964        C965   1.350       .  A
N964       Cu970   2.093       .  S
C965        C966   1.389       .  A
C965        H968   1.082       .  S
C966        C967   1.383       .  A
C966       C1254   1.493       .  S
C967        H969   1.082       .  S
Cu970       N973   2.093       .  S
Cu971       N981   2.064   1_655  S
Cu972       N974   2.067   1_455  S
Cu972       N980   2.067       .  S
N973        N974   1.323       .  A
N973        C977   1.349       .  A
N974        C975   1.340       .  A
C975        C976   1.382       .  A
C975        H978   1.082       .  S
C976        C977   1.388       .  A
C976       C1265   1.487       .  S
C977        H979   1.082       .  S
N980        N981   1.319       .  A
N980        C984   1.346       .  A
N981        C982   1.343       .  A
C982        C983   1.383       .  A
C982        H985   1.082       .  S
C983        C984   1.386       .  A
C983       C1282   1.487       .  S
C984        H986   1.082       .  S
C987       C1372   1.405       .  A
C987        C992   1.407       .  A
C987       C1251   1.491       .  S
C988       C1371   1.408       .  A
C988        C989   1.404   1_556  A
C988        H993   1.084       .  S
C989        C990   1.398       .  A
C989       C1268   1.484       .  S
C990        C991   1.395       .  A
C990        H994   1.085       .  S
C991       C1376   1.399   1_554  A
C991       C1125   1.467       .  S
C992       C1375   1.403       .  A
C992        H995   1.084       .  S
N996        N997   1.323       .  A
N996       C1000   1.345       .  A
N996      Cu1004   2.077       .  S
N997        C998   1.346   1_565  A
N997      Cu1003   2.075       .  S
C998        C999   1.383   1_545  A
C998       H1001   1.082       .  S
C999       C1000   1.384       .  A
C999       C1239   1.488   1_565  S
C1000      H1002   1.082       .  S
Cu1003     N1006   2.075       .  S
Cu1004     N1014   2.071       .  S
Cu1005     N1007   2.060       .  S
Cu1005     N1013   2.060       .  S
N1006      N1007   1.322       .  A
N1006      C1010   1.346   1_565  A
N1007      C1008   1.341       .  A
C1008      C1009   1.380       .  A
C1008      H1011   1.082       .  S
C1009      C1010   1.384   1_565  A
C1009      C1231   1.482   1_565  S
C1010      H1012   1.082       .  S
N1013      N1014   1.320       .  A
N1013      C1017   1.343       .  A
N1014      C1015   1.343       .  A
C1015      C1016   1.387       .  A
C1015      H1018   1.082       .  S
C1016      C1017   1.383       .  A
C1016      C1221   1.488       .  S
C1017      H1019   1.082       .  S
C1020      H1021   1.084       .  S
N1022      N1023   1.318       .  A
N1022      C1026   1.353       .  A
N1022     Cu1030   2.121       .  S
N1023      C1024   1.338       .  A
N1023     Cu1029   2.029       .  S
C1024      C1025   1.384       .  A
C1024      H1027   1.081       .  S
C1025      C1026   1.396       .  A
C1025      C1199   1.501       .  S
C1026      H1028   1.080       .  S
Cu1029     N1032   2.035       .  S
Cu1030     N1040   2.191       .  S
Cu1031     N1033   2.108       .  S
Cu1031     N1039   2.169       .  S
N1032      N1033   1.318       .  A
N1032      C1036   1.342       .  A
N1033      C1034   1.347       .  A
C1034      C1035   1.390       .  A
C1034      H1037   1.081       .  S
C1035      C1036   1.382       .  A
C1035      C1210   1.479       .  S
C1036      H1038   1.082       .  S
N1039      N1040   1.284       .  A
C1041      C1042   1.407       .  A
C1041      C1046   1.409   1_554  A
C1041      C1213   1.498       .  S
C1042      C1043   1.397   1_554  A
C1042      H1047   1.084       .  S
C1043      C1428   1.397       .  A
C1043      C1054   1.477       .  S
C1044      C1427   1.395       .  A
C1044      C1045   1.399       .  A
C1044      H1048   1.085       .  S
C1045      C1430   1.406       .  A
C1045      C1202   1.484       .  S
C1046      C1429   1.413       .  A
C1046      H1049   1.083       .  S
C1050      C1435   1.411       .  A
C1050      C1055   1.410       .  A
C1050      C1085   1.468       .  S
C1051      C1434   1.406       .  A
C1051      C1052   1.400       .  A
C1051      H1056   1.084       .  S
C1052      C1437   1.395       .  A
C1053      C1436   1.395       .  A
C1053      C1054   1.398       .  A
C1053      H1057   1.083       .  S
C1054      C1055   1.399       .  A
C1055      H1058   1.083   1_556  S
N1059      N1060   1.320       .  A
N1059      C1063   1.339       .  A
N1059     Cu1067   2.058       .  S
N1060      C1061   1.349       .  A
N1060     Cu1066   2.086       .  S
C1061      C1062   1.395       .  A
C1061      H1064   1.081       .  S
C1062      C1063   1.385       .  A
C1062      C1185   1.501       .  S
C1063      H1065   1.081       .  S
Cu1066     N1069   2.088       .  S
Cu1067     N1077   2.059       .  S
Cu1068     N1070   2.070       .  S
Cu1068     N1076   2.069       .  S
N1069      N1070   1.324       .  A
N1069      C1073   1.347       .  A
N1070      C1071   1.343       .  A
C1071      C1072   1.381       .  A
C1071      H1074   1.082       .  S
C1072      C1073   1.385       .  A
C1072      C1171   1.486       .  S
C1073      H1075   1.082       .  S
N1076      N1077   1.320       .  A
N1076      C1080   1.346       .  A
N1077      C1078   1.342       .  A
C1078      C1079   1.379       .  A
C1078      H1081   1.082       .  S
C1079      C1080   1.382       .  A
C1079      C1157   1.476       .  S
C1080      H1082   1.082       .  S
C1083      C1084   1.408       .  A
C1083      C1088   1.408   1_554  A
C1083      C1188   1.499       .  S
C1084      C1085   1.400   1_554  A
C1084      H1089   1.084       .  S
C1085      C1470   1.398       .  A
C1086      C1469   1.396       .  A
C1086      C1087   1.399       .  A
C1086      H1090   1.085       .  S
C1087      C1472   1.401       .  A
C1087      C1174   1.482       .  S
C1088      C1471   1.403       .  A
C1088      H1091   1.083       .  S
N1092      N1093   1.322       .  A
N1092      C1096   1.342       .  A
N1092     Cu1100   2.062       .  S
N1093      C1094   1.350       .  A
N1093     Cu1099   2.092       .  S
C1094      C1095   1.389       .  A
C1094      H1097   1.082       .  S
C1095      C1096   1.381       .  A
C1095      C1146   1.491       .  S
C1096      H1098   1.082       .  S
Cu1099     N1102   2.093       .  S
Cu1100     N1110   2.062       .  S
Cu1101     N1103   2.071       .  S
Cu1101     N1109   2.070       .  S
N1102      N1103   1.325       .  A
N1102      C1106   1.347       .  A
N1103      C1104   1.345       .  A
C1104      C1105   1.381       .  A
C1104      H1107   1.082       .  S
C1105      C1106   1.385       .  A
C1105      C1132   1.486       .  S
C1106      H1108   1.082       .  S
N1109      N1110   1.321       .  A
N1109      C1113   1.346       .  A
N1110      C1111   1.342       .  A
C1111      C1112   1.381       .  A
C1111      H1114   1.082       .  S
C1112      C1113   1.384       .  A
C1112      C1160   1.480       .  S
C1113      H1115   1.082       .  S
C1116      C1117   1.404       .  A
C1116      C1121   1.404   1_554  A
C1116      C1129   1.488       .  S
C1117      C1118   1.400       .  A
C1117      H1122   1.084       .  S
C1118      C1503   1.397   1_554  A
C1118      C1127   1.464       .  S
C1119      C1502   1.403       .  A
C1119      C1120   1.405       .  A
C1119      H1123   1.084       .  S
C1120      C1505   1.402       .  A
C1120      C1143   1.491       .  S
C1121      C1504   1.404       .  A
C1121      H1124   1.084       .  S
C1125      C1126   1.399       .  A
C1126      C1127   1.404       .  A
C1126      H1128   1.084       .  S
C1129      C1130   1.412       .  A
C1129      C1134   1.413       .  A
C1130      C1131   1.411       .  A
C1130      C1135   1.451       .  S
C1131      C1132   1.414       .  A
C1131      C1138   1.451       .  S
C1132      C1133   1.412       .  A
C1133      C1134   1.411       .  A
C1133      C1136   1.451       .  S
C1134      C1137   1.451       .  S
C1135      N1142   1.157       .  T
C1136      N1141   1.157       .  T
C1137      N1139   1.157       .  T
C1138      N1140   1.157       .  T
C1143      C1144   1.412       .  A
C1143      C1148   1.414       .  A
C1144      C1145   1.412       .  A
C1144      C1149   1.451       .  S
C1145      C1146   1.416       .  A
C1145      C1152   1.452       .  S
C1146      C1147   1.413       .  A
C1147      C1148   1.412       .  A
C1147      C1150   1.450       .  S
C1148      C1151   1.452       .  S
C1149      N1156   1.157       .  T
C1150      N1155   1.157       .  T
C1151      N1153   1.157       .  T
C1152      N1154   1.157       .  T
C1157      C1158   1.410       .  A
C1157      C1162   1.409       .  A
C1158      C1159   1.411       .  A
C1158      C1163   1.450       .  S
C1159      C1160   1.411       .  A
C1159      C1166   1.450       .  S
C1160      C1161   1.414       .  A
C1161      C1162   1.408       .  A
C1161      C1164   1.451       .  S
C1162      C1165   1.451       .  S
C1163      N1170   1.157       .  T
C1164      N1169   1.157       .  T
C1165      N1167   1.157       .  T
C1166      N1168   1.157       .  T
C1171      C1172   1.415       .  A
C1171      C1176   1.415       .  A
C1172      C1173   1.413       .  A
C1172      C1177   1.450       .  S
C1173      C1174   1.408       .  A
C1173      C1180   1.449       .  S
C1174      C1175   1.412       .  A
C1175      C1176   1.407       .  A
C1175      C1178   1.454       .  S
C1176      C1179   1.452       .  S
C1177      N1184   1.157       .  T
C1178      N1183   1.157       .  T
C1179      N1181   1.157       .  T
C1180      N1182   1.157       .  T
C1185      C1186   1.418       .  A
C1185      C1190   1.419       .  A
C1186      C1187   1.413       .  A
C1186      C1191   1.450       .  S
C1187      C1188   1.416       .  A
C1187      C1194   1.452       .  S
C1188      C1189   1.415       .  A
C1189      C1190   1.410       .  A
C1189      C1192   1.453       .  S
C1190      C1193   1.452       .  S
C1191      N1198   1.158       .  T
C1192      N1197   1.158       .  T
C1193      N1195   1.158       .  T
C1194      N1196   1.157       .  T
C1199      C1200   1.418       .  A
C1199      C1204   1.422       .  A
C1200      C1201   1.411       .  A
C1200      C1205   1.445       .  S
C1201      C1202   1.411       .  A
C1201      C1207   1.454       .  S
C1202      C1203   1.407       .  A
C1203      C1204   1.411       .  A
C1203      C1206   1.451       .  S
C1205      N1209   1.156       .  T
C1207      N1208   1.157       .  T
C1210      C1211   1.411       .  A
C1210      C1215   1.406       .  A
C1211      C1212   1.419       .  A
C1212      C1213   1.417       .  A
C1212      C1218   1.448       .  S
C1213      C1214   1.414       .  A
C1214      C1215   1.398       .  A
C1214      C1216   1.442       .  S
C1215      C1217   1.454       .  S
C1216      N1220   1.153       .  T
C1217      N1219   1.157       .  T
C1221      C1222   1.420       .  A
C1221      C1226   1.413       .  A
C1222      C1223   1.405       .  A
C1222      C1227   1.452       .  S
C1223      C1224   1.407       .  A
C1223      C1228   1.452       .  S
C1224      C1225   1.412       .  A
C1224      C1279   1.493       .  S
C1225      C1226   1.413       .  A
C1227      N1230   1.157       .  T
C1228      N1229   1.157       .  T
C1231      C1232   1.414       .  A
C1232      C1233   1.408       .  A
C1232      C1235   1.452   1_545  S
C1233      C1234   1.414       .  A
C1233      C1236   1.453       .  S
C1235      N1238   1.157       .  T
C1236      N1237   1.158       .  T
C1239      C1240   1.414       .  A
C1239      C1244   1.415       .  A
C1240      C1241   1.413       .  A
C1240      C1245   1.450       .  S
C1241      C1242   1.411       .  A
C1242      C1243   1.411       .  A
C1243      C1244   1.410       .  A
C1243      C1246   1.452       .  S
C1244      C1247   1.451   1_545  S
C1245      N1250   1.157       .  T
C1246      N1249   1.157       .  T
C1247      N1248   1.157       .  T
C1251      C1252   1.413       .  A
C1251      C1256   1.413       .  A
C1252      C1253   1.416       .  A
C1252      C1257   1.450       .  S
C1253      C1254   1.415       .  A
C1253      C1260   1.450       .  S
C1254      C1255   1.417       .  A
C1255      C1256   1.408       .  A
C1255      C1258   1.452       .  S
C1256      C1259   1.453       .  S
C1257      N1264   1.157       .  T
C1258      N1263   1.157       .  T
C1259      N1261   1.157       .  T
C1260      N1262   1.158       .  T
C1265      C1266   1.415       .  A
C1265      C1270   1.416       .  A
C1266      C1267   1.413       .  A
C1266      C1271   1.448       .  S
C1267      C1268   1.410       .  A
C1267      C1274   1.451       .  S
C1268      C1269   1.413       .  A
C1269      C1270   1.406       .  A
C1269      C1272   1.453       .  S
C1270      C1273   1.453       .  S
C1271      N1278   1.157       .  T
C1272      N1277   1.157       .  T
C1273      N1275   1.158       .  T
C1274      N1276   1.157       .  T
C1279      C1280   1.409       .  A
C1279      C1284   1.411       .  A
C1280      C1281   1.411       .  A
C1280      C1285   1.451   1_455  S
C1281      C1282   1.417       .  A
C1281      C1288   1.450   1_455  S
C1282      C1283   1.414       .  A
C1283      C1284   1.408       .  A
C1283      C1286   1.450       .  S
C1284      C1287   1.451       .  S
C1285      N1292   1.157       .  T
C1286      N1291   1.157       .  T
C1287      N1289   1.157       .  T
C1288      N1290   1.157       .  T
C1293      C1294   1.415       .  A
C1293      C1298   1.413       .  A
C1294      C1295   1.409       .  A
C1294      C1299   1.449       .  S
C1295      C1296   1.415       .  A
C1295      C1302   1.452       .  S
C1296      C1297   1.424       .  A
C1297      C1298   1.414       .  A
C1297      C1300   1.449       .  S
C1298      C1301   1.453       .  S
C1299      N1306   1.157       .  T
C1300      N1305   1.158       .  T
C1301      N1303   1.157       .  T
C1302      N1304   1.157       .  T
C1307      C1308   1.424       .  A
C1307      C1312   1.415       .  A
C1308      C1309   1.415       .  A
C1308      C1313   1.450       .  S
C1309      C1310   1.416       .  A
C1309      C1316   1.452       .  S
C1310      C1311   1.423       .  A
C1311      C1312   1.413       .  A
C1311      C1314   1.449       .  S
C1312      C1315   1.453       .  S
C1313      N1320   1.158       .  T
C1314      N1319   1.158       .  T
C1315      N1317   1.157       .  T
C1316      N1318   1.158       .  T
N1321      N1322   1.344       .  A
N1321      C1325   1.344       .  A
N1321     Cu1329   2.230       .  S
N1322      C1323   1.348       .  A
N1322     Cu1328   2.208       .  S
C1323      C1324   1.388       .  A
C1323      H1326   1.081       .  S
C1324      C1325   1.387       .  A
C1324      C1694   1.500       .  S
C1325      H1327   1.082       .  S
Cu1328     N1331   2.208       .  S
Cu1330     N1332   2.222       .  S
N1331      N1332   1.343       .  A
N1331      C1335   1.347       .  A
N1332      C1333   1.345       .  A
C1333      C1334   1.387       .  A
C1333      H1336   1.081       .  S
C1334      C1335   1.389       .  A
C1334      C1680   1.499       .  S
C1335      H1337   1.082       .  S
C1338      C1339   1.405       .  A
C1338      C1343   1.402       .  A
C1338      C1677   1.488       .  S
C1339      H1344   1.081       .  S
C1340      C1341   1.415       .  A
C1340      C1691   1.522       .  S
C1341      H1345   1.080       .  S
C1342      C1343   1.398       .  A
C1342      C1436   1.479       .  S
C1343      H1346   1.083       .  S
N1347      N1348   1.321       .  A
N1347      C1351   1.338       .  A
N1347     Cu1355   2.050       .  S
N1348      C1349   1.351       .  A
N1348     Cu1354   2.093       .  S
C1349      C1350   1.390       .  A
C1349      H1352   1.082       .  S
C1350      C1351   1.379       .  A
C1350      C1638   1.488       .  S
C1351      H1353   1.082       .  S
Cu1354     N1357   2.095       .  S
Cu1355     N1365   2.050   1_655  S
Cu1356     N1358   2.068   1_455  S
Cu1356     N1364   2.068       .  S
N1357      N1358   1.325       .  A
N1357      C1361   1.347       .  A
N1358      C1359   1.343       .  A
C1359      C1360   1.382       .  A
C1359      H1362   1.082       .  S
C1360      C1361   1.387       .  A
C1360      C1649   1.491       .  S
C1361      H1363   1.082       .  S
N1364      N1365   1.318       .  A
N1364      C1368   1.346       .  A
N1365      C1366   1.340       .  A
C1366      C1367   1.382       .  A
C1366      H1369   1.082       .  S
C1367      C1368   1.388       .  A
C1367      C1666   1.488       .  S
C1368      H1370   1.082       .  S
C1371      C1376   1.407       .  A
C1371      C1635   1.492       .  S
C1372      C1373   1.403       .  A
C1372      H1377   1.084       .  S
C1373      C1374   1.402       .  A
C1373      C1652   1.485       .  S
C1374      C1375   1.401       .  A
C1374      H1378   1.085       .  S
C1375      C1509   1.474       .  S
C1376      H1379   1.084       .  S
N1380      N1381   1.324       .  A
N1380      C1384   1.342       .  A
N1380     Cu1388   2.062       .  S
N1381      C1382   1.349   1_565  A
N1381     Cu1387   2.101       .  S
C1382      C1383   1.388       .  A
C1382      H1385   1.082       .  S
C1383      C1384   1.380   1_545  A
C1383      C1623   1.485       .  S
C1384      H1386   1.082       .  S
Cu1387     N1390   2.101       .  S
Cu1388     N1398   2.061       .  S
Cu1389     N1391   2.063       .  S
Cu1389     N1397   2.064       .  S
N1390      N1391   1.322       .  A
N1390      C1394   1.350   1_565  A
N1391      C1392   1.341       .  A
C1392      C1393   1.385       .  A
C1392      H1395   1.081       .  S
C1393      C1394   1.394   1_565  A
C1393      C1615   1.502   1_565  S
C1394      H1396   1.082       .  S
N1397      N1398   1.319       .  A
N1397      C1401   1.344       .  A
N1398      C1399   1.344       .  A
C1399      C1400   1.384       .  A
C1399      H1402   1.082       .  S
C1400      C1401   1.383       .  A
C1400      C1605   1.483       .  S
C1401      H1403   1.082       .  S
C1404      H1405   1.084       .  S
N1406      N1407   1.322       .  A
N1406      C1410   1.345       .  A
N1406     Cu1414   2.120       .  S
N1407      C1408   1.344       .  A
N1407     Cu1413   2.034       .  S
C1408      C1409   1.378       .  A
C1408      H1411   1.082       .  S
C1409      C1410   1.385       .  A
C1409      C1583   1.481       .  S
C1410      H1412   1.074       .  S
Cu1413     N1416   2.031       .  S
Cu1414     N1424   2.188       .  S
Cu1415     N1417   2.119       .  S
Cu1415     N1423   2.184       .  S
N1416      N1417   1.321       .  A
N1416      C1420   1.346       .  A
N1417      C1418   1.345       .  A
C1418      C1419   1.384       .  A
C1418      H1421   1.080       .  S
C1419      C1420   1.379       .  A
C1419      C1594   1.482       .  S
C1420      H1422   1.082       .  S
N1423      N1424   1.280       .  A
C1425      C1426   1.408       .  A
C1425      C1430   1.411       .  A
C1425      C1597   1.502       .  S
C1426      C1427   1.399       .  A
C1426      H1431   1.084       .  S
C1427      C1438   1.473       .  S
C1428      C1429   1.408       .  A
C1428      H1432   1.083       .  S
C1429      C1586   1.502       .  S
C1430      H1433   1.083       .  S
C1434      C1439   1.405       .  A
C1434      C1469   1.467       .  S
C1435      C1436   1.400       .  A
C1435      H1440   1.084       .  S
C1437      C1438   1.406       .  A
C1437      H1441   1.085       .  S
C1438      C1439   1.400       .  A
C1439      H1442   1.084       .  S
N1443      N1444   1.320       .  A
N1443      C1447   1.340       .  A
N1443     Cu1451   2.064       .  S
N1444      C1445   1.347       .  A
N1444     Cu1450   2.076       .  S
C1445      C1446   1.390       .  A
C1445      H1448   1.081       .  S
C1446      C1447   1.386       .  A
C1446      C1569   1.497       .  S
C1447      H1449   1.081       .  S
Cu1450     N1453   2.078       .  S
Cu1451     N1461   2.065       .  S
Cu1452     N1454   2.064       .  S
Cu1452     N1460   2.065       .  S
N1453      N1454   1.323       .  A
N1453      C1457   1.347       .  A
N1454      C1455   1.341       .  A
C1455      C1456   1.380       .  A
C1455      H1458   1.082       .  S
C1456      C1457   1.383       .  A
C1456      C1555   1.480       .  S
C1457      H1459   1.082       .  S
N1460      N1461   1.320       .  A
N1460      C1464   1.346       .  A
N1461      C1462   1.341       .  A
C1462      C1463   1.383       .  A
C1462      H1465   1.082       .  S
C1463      C1464   1.385       .  A
C1463      C1541   1.486       .  S
C1464      H1466   1.082       .  S
C1467      C1468   1.407       .  A
C1467      C1472   1.408       .  A
C1467      C1572   1.494       .  S
C1468      C1469   1.400       .  A
C1468      H1473   1.084       .  S
C1470      C1471   1.402       .  A
C1470      H1474   1.084       .  S
C1471      C1558   1.488       .  S
C1472      H1475   1.084       .  S
N1476      N1477   1.321       .  A
N1476      C1480   1.340       .  A
N1476     Cu1484   2.057       .  S
N1477      C1478   1.347       .  A
N1477     Cu1483   2.075       .  S
C1478      C1479   1.385       .  A
C1478      H1481   1.082       .  S
C1479      C1480   1.380       .  A
C1479      C1530   1.481       .  S
C1480      H1482   1.082       .  S
Cu1483     N1486   2.076       .  S
Cu1484     N1494   2.056       .  S
Cu1485     N1487   2.085       .  S
Cu1485     N1493   2.084       .  S
N1486      N1487   1.323       .  A
N1486      C1490   1.345       .  A
N1487      C1488   1.346       .  A
C1488      C1489   1.387       .  A
C1488      H1491   1.082       .  S
C1489      C1490   1.384       .  A
C1489      C1516   1.492       .  S
C1490      H1492   1.082       .  S
N1493      N1494   1.322       .  A
N1493      C1497   1.346       .  A
N1494      C1495   1.343       .  A
C1495      C1496   1.378       .  A
C1495      H1498   1.082       .  S
C1496      C1497   1.384       .  A
C1496      C1544   1.478       .  S
C1497      H1499   1.082       .  S
C1500      C1501   1.410       .  A
C1500      C1505   1.402       .  A
C1500      C1513   1.492       .  S
C1501      C1502   1.409       .  A
C1501      H1506   1.084       .  S
C1502      C1511   1.483       .  S
C1503      C1504   1.398       .  A
C1503      H1507   1.084       .  S
C1504      C1527   1.480       .  S
C1505      H1508   1.084       .  S
C1509      C1510   1.406       .  A
C1510      C1511   1.412       .  A
C1510      H1512   1.083       .  S
C1513      C1514   1.413       .  A
C1513      C1518   1.413       .  A
C1514      C1515   1.411       .  A
C1514      C1519   1.450       .  S
C1515      C1516   1.415       .  A
C1515      C1522   1.451       .  S
C1516      C1517   1.415       .  A
C1517      C1518   1.414       .  A
C1517      C1520   1.451       .  S
C1518      C1521   1.451       .  S
C1519      N1526   1.157       .  T
C1520      N1525   1.157       .  T
C1521      N1523   1.157       .  T
C1522      N1524   1.157       .  T
C1527      C1528   1.409       .  A
C1527      C1532   1.413       .  A
C1528      C1529   1.408       .  A
C1528      C1533   1.451       .  S
C1529      C1530   1.414       .  A
C1529      C1536   1.452       .  S
C1530      C1531   1.411       .  A
C1531      C1532   1.409       .  A
C1531      C1534   1.450       .  S
C1532      C1535   1.452       .  S
C1533      N1540   1.157       .  T
C1534      N1539   1.157       .  T
C1535      N1537   1.157       .  T
C1536      N1538   1.157       .  T
C1541      C1542   1.415       .  A
C1541      C1546   1.415       .  A
C1542      C1543   1.411       .  A
C1542      C1547   1.451       .  S
C1543      C1544   1.410       .  A
C1543      C1550   1.451       .  S
C1544      C1545   1.409       .  A
C1545      C1546   1.408       .  A
C1545      C1548   1.451       .  S
C1546      C1549   1.452       .  S
C1547      N1554   1.157       .  T
C1548      N1553   1.157       .  T
C1549      N1551   1.157       .  T
C1550      N1552   1.157       .  T
C1555      C1556   1.409       .  A
C1555      C1560   1.412       .  A
C1556      C1557   1.412       .  A
C1556      C1561   1.450       .  S
C1557      C1558   1.414       .  A
C1557      C1564   1.450       .  S
C1558      C1559   1.415       .  A
C1559      C1560   1.407       .  A
C1559      C1562   1.453       .  S
C1560      C1563   1.452       .  S
C1561      N1568   1.157       .  T
C1562      N1567   1.157       .  T
C1563      N1565   1.157       .  T
C1564      N1566   1.157       .  T
C1569      C1570   1.417       .  A
C1569      C1574   1.418       .  A
C1570      C1571   1.413       .  A
C1570      C1575   1.450       .  S
C1571      C1572   1.414       .  A
C1571      C1578   1.451       .  S
C1572      C1573   1.415       .  A
C1573      C1574   1.408       .  A
C1573      C1576   1.453       .  S
C1574      C1577   1.452       .  S
C1575      N1582   1.158       .  T
C1576      N1581   1.157       .  T
C1577      N1579   1.158       .  T
C1578      N1580   1.157       .  T
C1583      C1584   1.407       .  A
C1583      C1588   1.410       .  A
C1584      C1585   1.403       .  A
C1584      C1589   1.455       .  S
C1585      C1586   1.422       .  A
C1585      C1591   1.448       .  S
C1586      C1587   1.419       .  A
C1587      C1588   1.417       .  A
C1587      C1590   1.449       .  S
C1589      N1593   1.157       .  T
C1591      N1592   1.155       .  T
C1594      C1595   1.410       .  A
C1594      C1599   1.406       .  A
C1595      C1596   1.416       .  A
C1596      C1597   1.419       .  A
C1596      C1602   1.450       .  S
C1597      C1598   1.423       .  A
C1598      C1599   1.404       .  A
C1598      C1600   1.450       .  S
C1599      C1601   1.454       .  S
C1600      N1604   1.156       .  T
C1601      N1603   1.157       .  T
C1605      C1606   1.415       .  A
C1605      C1610   1.410       .  A
C1606      C1607   1.407       .  A
C1606      C1611   1.448       .  S
C1607      C1608   1.408       .  A
C1607      C1612   1.451       .  S
C1608      C1609   1.412       .  A
C1608      C1663   1.492       .  S
C1609      C1610   1.411       .  A
C1611      N1614   1.156       .  T
C1612      N1613   1.157       .  T
C1615      C1616   1.422       .  A
C1616      C1617   1.411       .  A
C1616      C1619   1.451   1_545  S
C1617      C1618   1.408       .  A
C1617      C1620   1.453       .  S
C1619      N1622   1.158       .  T
C1620      N1621   1.157   1_545  T
C1623      C1624   1.408       .  A
C1623      C1628   1.411       .  A
C1624      C1625   1.414       .  A
C1624      C1629   1.450       .  S
C1625      C1626   1.418       .  A
C1626      C1627   1.416       .  A
C1627      C1628   1.409       .  A
C1627      C1630   1.452       .  S
C1628      C1631   1.448       .  S
C1629      N1634   1.157       .  T
C1630      N1633   1.158       .  T
C1631      N1632   1.155       .  T
C1635      C1636   1.414       .  A
C1635      C1640   1.416       .  A
C1636      C1637   1.415       .  A
C1636      C1641   1.450       .  S
C1637      C1638   1.413       .  A
C1637      C1644   1.450       .  S
C1638      C1639   1.415       .  A
C1639      C1640   1.407       .  A
C1639      C1642   1.453       .  S
C1640      C1643   1.454       .  S
C1641      N1648   1.157       .  T
C1642      N1647   1.157       .  T
C1643      N1645   1.158       .  T
C1644      N1646   1.157       .  T
C1649      C1650   1.414       .  A
C1649      C1654   1.419       .  A
C1650      C1651   1.413       .  A
C1650      C1655   1.450       .  S
C1651      C1652   1.409       .  A
C1651      C1658   1.449       .  S
C1652      C1653   1.411       .  A
C1653      C1654   1.410       .  A
C1653      C1656   1.453       .  S
C1654      C1657   1.452       .  S
C1655      N1662   1.157       .  T
C1656      N1661   1.157       .  T
C1657      N1659   1.158       .  T
C1658      N1660   1.157       .  T
C1663      C1664   1.408       .  A
C1663      C1668   1.410       .  A
C1664      C1665   1.411       .  A
C1664      C1669   1.450       .  S
C1665      C1666   1.418       .  A
C1665      C1672   1.450       .  S
C1666      C1667   1.415       .  A
C1667      C1668   1.407       .  A
C1667      C1670   1.451       .  S
C1668      C1671   1.452       .  S
C1669      N1676   1.157       .  T
C1670      N1675   1.157       .  T
C1671      N1673   1.157       .  T
C1672      N1674   1.157   1_455  T
C1677      C1678   1.413       .  A
C1677      C1682   1.407       .  A
C1678      C1679   1.408       .  A
C1678      C1683   1.454       .  S
C1679      C1680   1.418       .  A
C1679      C1686   1.451       .  S
C1680      C1681   1.420       .  A
C1681      C1682   1.416       .  A
C1681      C1684   1.450       .  S
C1682      C1685   1.449       .  S
C1683      N1690   1.157       .  T
C1684      N1689   1.157       .  T
C1685      N1687   1.157       .  T
C1686      N1688   1.157       .  T
C1691      C1692   1.420       .  A
C1691      C1696   1.417       .  A
C1692      C1693   1.414       .  A
C1692      C1697   1.447       .  S
C1693      C1694   1.415       .  A
C1693      C1700   1.452       .  S
C1694      C1695   1.416       .  A
C1695      C1696   1.414       .  A
C1695      C1698   1.449       .  S
C1696      C1699   1.451       .  S
C1697      N1704   1.158       .  T
C1698      N1703   1.157       .  T
C1699      N1701   1.157       .  T
C1700      N1702   1.157       .  T
N1705      N1706   1.346       .  A
N1705      C1709   1.345       .  A
N1705     Cu2566   2.190       .  S
N1706      C1707   1.345       .  A
N1706     Cu2565   2.189       .  S
C1707      C1708   1.392       .  A
C1707      H1710   1.082       .  S
C1708      C1709   1.391       .  A
C1708      C1720   1.539       .  S
C1709      H1711   1.082       .  S
C1712      C1716   1.401       .  A
C1712      C2640   1.401   1_554  A
C1712      C2862   1.482       .  S
C1713      C1714   1.402       .  A
C1713      C3024   1.407       .  A
C1713      C2854   1.490       .  S
C1714      C1757   1.397       .  A
C1714      H1717   1.085       .  S
C1715      C1716   1.400   1_556  A
C1715      C1756   1.402       .  A
C1715      C1724   1.471   1_556  S
C1716      H1718   1.084       .  S
C1719      N2660   1.348       .  A
C1719      C1720   1.412       .  A
C1719      H1722   1.082       .  S
C1720      C1721   1.410       .  A
C1721      N2659   1.346       .  A
C1721      H1723   1.082       .  S
C1724      C1725   1.399       .  A
C1724      C1726   1.401       .  A
C1725      C1977   1.404       .  A
C1725      H1727   1.085   1_554  S
C1726      C1979   1.404       .  A
C1726      H1728   1.084       .  S
C1729      C2824   1.449       .  S
C1729      N1730   1.157       .  T
N1731      C2826   1.157   1_565  T
C1732      C2831   1.451       .  S
C1732      N1734   1.157   1_545  T
N1733      C2838   1.157       .  T
C1735      C2845   1.450       .  S
C1735      N1738   1.157       .  T
C1736      C2846   1.451       .  S
C1736      N1737   1.157       .  T
C1739      C1740   1.414       .  A
C1739      C2854   1.413       .  A
C1739      C1741   1.450       .  S
C1740      C2851   1.411       .  A
C1740      C1742   1.449       .  S
C1741      N1744   1.157       .  T
C1742      N1743   1.157       .  T
C1745      C2861   1.450       .  S
C1745      N1746   1.157       .  T
N1747      N1748   1.344       .  A
N1747      C1751   1.344       .  A
N1747     Cu2950   2.172       .  S
N1748      C1749   1.345       .  A
N1748     Cu2949   2.181       .  S
C1749      C1750   1.391       .  A
C1749      H1752   1.082       .  S
C1750      C1751   1.391       .  A
C1750      C1762   1.537       .  S
C1751      H1753   1.082       .  S
C1754      C3024   1.406       .  A
C1754      C1758   1.401       .  A
C1754      C3246   1.481       .  S
C1755      C2640   1.404       .  A
C1755      C1756   1.406       .  A
C1755      C3238   1.487       .  S
C1756      H1759   1.084       .  S
C1757      C1758   1.394       .  A
C1757      C1766   1.464       .  S
C1758      H1760   1.084       .  S
C1761      N3044   1.347       .  A
C1761      C1762   1.410       .  A
C1761      H1764   1.082       .  S
C1762      C1763   1.410       .  A
C1763      N3043   1.346       .  A
C1763      H1765   1.082       .  S
C1766      C1767   1.392       .  A
C1766      C1768   1.400       .  A
C1767      C2361   1.398       .  A
C1767      H1769   1.085       .  S
C1768      C2363   1.402       .  A
C1768      H1770   1.085       .  S
C1771      C3208   1.448       .  S
C1771      N1772   1.157       .  T
N1773      C3210   1.157       .  T
C1774      C3215   1.448       .  S
C1774      N1776   1.157       .  T
N1775      C3222   1.157       .  T
C1777      C3229   1.451       .  S
C1777      N1780   1.157       .  T
C1778      C3230   1.451       .  S
C1778      N1779   1.157       .  T
C1781      C3238   1.412       .  A
C1781      C1782   1.412       .  A
C1781      C1783   1.451       .  S
C1782      C3235   1.413       .  A
C1782      C1784   1.451       .  S
C1783      N1786   1.157       .  T
C1784      N1785   1.157       .  T
C1787      C3245   1.450       .  S
C1787      N1788   1.157       .  T
N1789      N1790   1.340       .  A
N1789      C1793   1.343       .  A
N1789     Cu1797   2.224       .  S
N1790      C1791   1.348       .  A
N1790     Cu1796   2.193       .  S
C1791      C1792   1.393       .  A
C1791      H1794   1.078       .  S
C1792      C1793   1.394       .  A
C1792      C2162   1.515       .  S
C1793      H1795   1.080       .  S
Cu1796     N1799   2.194       .  S
Cu1797     N3326   2.182       .  S
Cu1798     N1800   2.228       .  S
Cu1798     N3325   2.185       .  S
N1799      N1800   1.340       .  A
N1799      C1803   1.346       .  A
N1800      C1801   1.344       .  A
C1801      C1802   1.393       .  A
C1801      H1804   1.080       .  S
C1802      C1803   1.391       .  A
C1802      C2148   1.512       .  S
C1803      H1805   1.079       .  S
C1806      C1807   1.407       .  A
C1806      C1811   1.400       .  A
C1806      C2145   1.496       .  S
C1807      C2192   1.412       .  A
C1807      H1812   1.076   1_655  S
C1808      C2191   1.413   1_655  A
C1808      C1809   1.416       .  A
C1808      C2159   1.521       .  S
C1809      C2194   1.403   1_554  A
C1809      H1813   1.083       .  S
C1810      C2193   1.397       .  A
C1810      C1811   1.396       .  A
C1810      C1904   1.472       .  S
C1811      H1814   1.084       .  S
N1815      N1816   1.320       .  A
N1815      C1819   1.342       .  A
N1815     Cu1823   2.066       .  S
N1816      C1817   1.347       .  A
N1816     Cu1822   2.082       .  S
C1817      C1818   1.388       .  A
C1817      H1820   1.081       .  S
C1818      C1819   1.386       .  A
C1818      C2106   1.496       .  S
C1819      H1821   1.082       .  S
Cu1822     N1825   2.080       .  S
Cu1823     N1833   2.066       .  S
Cu1824     N1826   2.077       .  S
Cu1824     N1832   2.077       .  S
N1825      N1826   1.321       .  A
N1825      C1829   1.347       .  A
N1826      C1827   1.343       .  A
C1827      C1828   1.386       .  A
C1827      H1830   1.082       .  S
C1828      C1829   1.386       .  A
C1828      C2117   1.485       .  S
C1829      H1831   1.082       .  S
N1832      N1833   1.322       .  A
N1832      C1836   1.345       .  A
N1833      C1834   1.345       .  A
C1834      C1835   1.381       .  A
C1834      H1837   1.082       .  S
C1835      C1836   1.385       .  A
C1835      C2134   1.484       .  S
C1836      H1838   1.082       .  S
C1839      C2224   1.405       .  A
C1839      C1844   1.402       .  A
C1839      C2103   1.486       .  S
C1840      C2223   1.403   1_554  A
C1840      C1841   1.409       .  A
C1840      H1845   1.084       .  S
C1841      C1842   1.409       .  A
C1841      C2120   1.499       .  S
C1842      C1843   1.400       .  A
C1842      H1846   1.084       .  S
C1843      C2228   1.398   1_554  A
C1843      C1977   1.472       .  S
C1844      C2227   1.400       .  A
C1844      H1847   1.084       .  S
N1848      N1849   1.324       .  A
N1848      C1852   1.345       .  A
N1848     Cu1856   2.076       .  S
N1849      C1850   1.345       .  A
N1849     Cu1855   2.083       .  S
C1850      C1851   1.385       .  A
C1850      H1853   1.082       .  S
C1851      C1852   1.385       .  A
C1851      C2091   1.491       .  S
C1852      H1854   1.082       .  S
Cu1855     N1858   2.082       .  S
Cu1856     N1866   2.072   1_545  S
Cu1857     N1859   2.064       .  S
Cu1857     N1865   2.063   1_545  S
N1858      N1859   1.321       .  A
N1858      C1862   1.348       .  A
N1859      C1860   1.343       .  A
C1860      C1861   1.382       .  A
C1860      H1863   1.082       .  S
C1861      C1862   1.386       .  A
C1861      C2083   1.487       .  S
C1862      H1864   1.082       .  S
N1865      N1866   1.319       .  A
N1865      C1869   1.341       .  A
N1866      C1867   1.345       .  A
C1867      C1868   1.390       .  A
C1867      H1870   1.080       .  S
C1868      C1869   1.386       .  A
C1868      C2073   1.497       .  S
C1869      H1871   1.082       .  S
C1872      C3332   1.401   1_556  A
C1872      C3375   1.402       .  A
C1872      H1873   1.084       .  S
N1874      N1875   1.322       .  A
N1874      C1878   1.344       .  A
N1874     Cu1882   2.119       .  S
N1875      C1876   1.344       .  A
N1875     Cu1881   2.024       .  S
C1876      C1877   1.377       .  A
C1876      H1879   1.082       .  S
C1877      C1878   1.382       .  A
C1877      C2051   1.478       .  S
C1878      H1880   1.080       .  S
Cu1881     N1884   2.026       .  S
Cu1882     N1892   2.186       .  S
Cu1883     N1885   2.116       .  S
Cu1883     N1891   2.177       .  S
N1884      N1885   1.320       .  A
N1884      C1888   1.342       .  A
N1885      C1886   1.346       .  A
C1886      C1887   1.386       .  A
C1886      H1889   1.079       .  S
C1887      C1888   1.378       .  A
C1887      C2062   1.478       .  S
C1888      H1890   1.082       .  S
N1891      N1892   1.283       .  A
N1891      C3341   1.347   1_655  A
N1892      C3339   1.347       .  A
C1893      C1894   1.403       .  A
C1893      C1898   1.405   1_554  A
C1893      C2065   1.490       .  S
C1894      C1895   1.395   1_554  A
C1894      H1899   1.085       .  S
C1895      C2280   1.397       .  A
C1895      C1906   1.470       .  S
C1896      C2279   1.399       .  A
C1896      C1897   1.406       .  A
C1896      H1900   1.085       .  S
C1897      C2282   1.404       .  A
C1897      C2054   1.488       .  S
C1898      C2281   1.412       .  A
C1898      H1901   1.083       .  S
C1902      C2287   1.412       .  A
C1902      C1907   1.407       .  A
C1902      C1937   1.464   1_556  S
C1903      C2286   1.405       .  A
C1903      C1904   1.399       .  A
C1903      H1908   1.084       .  S
C1904      C2289   1.396       .  A
C1905      C2288   1.395       .  A
C1905      C1906   1.396       .  A
C1905      H1909   1.083       .  S
C1906      C1907   1.394       .  A
C1907      H1910   1.084       .  S
N1911      N1912   1.320       .  A
N1911      C1915   1.339       .  A
N1911     Cu1919   2.058       .  S
N1912      C1913   1.349       .  A
N1912     Cu1918   2.091       .  S
C1913      C1914   1.394       .  A
C1913      H1916   1.081       .  S
C1914      C1915   1.384       .  A
C1914      C2037   1.500       .  S
C1915      H1917   1.081       .  S
Cu1918     N1921   2.093       .  S
Cu1919     N1929   2.060       .  S
Cu1920     N1922   2.064       .  S
Cu1920     N1928   2.063       .  S
N1921      N1922   1.324       .  A
N1921      C1925   1.348       .  A
N1922      C1923   1.342       .  A
C1923      C1924   1.379       .  A
C1923      H1926   1.082       .  S
C1924      C1925   1.386       .  A
C1924      C2023   1.484       .  S
C1925      H1927   1.082       .  S
N1928      N1929   1.319       .  A
N1928      C1932   1.345       .  A
N1929      C1930   1.342       .  A
C1930      C1931   1.383       .  A
C1930      H1933   1.082       .  S
C1931      C1932   1.384       .  A
C1931      C2009   1.484       .  S
C1932      H1934   1.082       .  S
C1935      C1936   1.406       .  A
C1935      C1940   1.410       .  A
C1935      C2040   1.496       .  S
C1936      C1937   1.399       .  A
C1936      H1941   1.084       .  S
C1937      C2322   1.397   1_554  A
C1938      C2321   1.397       .  A
C1938      C1939   1.402       .  A
C1938      H1942   1.084       .  S
C1939      C2324   1.403       .  A
C1939      C2026   1.484       .  S
C1940      C2323   1.403   1_554  A
C1940      H1943   1.084       .  S
N1944      N1945   1.323       .  A
N1944      C1948   1.343       .  A
N1944     Cu1952   2.062       .  S
N1945      C1946   1.346       .  A
N1945     Cu1951   2.084       .  S
C1946      C1947   1.386       .  A
C1946      H1949   1.082       .  S
C1947      C1948   1.382       .  A
C1947      C1998   1.488       .  S
C1948      H1950   1.082       .  S
Cu1951     N1954   2.084       .  S
Cu1952     N1962   2.062       .  S
Cu1953     N1955   2.076       .  S
Cu1953     N1961   2.076       .  S
N1954      N1955   1.321       .  A
N1954      C1958   1.346       .  A
N1955      C1956   1.346       .  A
C1956      C1957   1.387       .  A
C1956      H1959   1.082       .  S
C1957      C1958   1.389       .  A
C1957      C1984   1.497       .  S
C1958      H1960   1.082       .  S
N1961      N1962   1.322       .  A
N1961      C1965   1.342       .  A
N1962      C1963   1.346       .  A
C1963      C1964   1.382       .  A
C1963      H1966   1.082       .  S
C1964      C1965   1.383       .  A
C1964      C2012   1.483       .  S
C1965      H1967   1.082       .  S
C1968      C1969   1.405       .  A
C1968      C1973   1.408       .  A
C1968      C1981   1.494       .  S
C1969      C1970   1.401       .  A
C1969      H1974   1.084       .  S
C1970      C2355   1.399   1_554  A
C1970      C1979   1.471       .  S
C1971      C2354   1.403       .  A
C1971      C1972   1.405       .  A
C1971      H1975   1.084       .  S
C1972      C2357   1.403       .  A
C1972      C1995   1.492       .  S
C1973      C2356   1.409   1_554  A
C1973      H1976   1.083       .  S
C1977      C1978   1.402       .  A
C1978      C1979   1.404       .  A
C1978      H1980   1.084       .  S
C1981      C1982   1.412       .  A
C1981      C1986   1.413       .  A
C1982      C1983   1.415       .  A
C1982      C1987   1.451       .  S
C1983      C1984   1.418       .  A
C1983      C1990   1.451       .  S
C1984      C1985   1.417       .  A
C1985      C1986   1.412       .  A
C1985      C1988   1.451       .  S
C1986      C1989   1.452       .  S
C1987      N1994   1.157       .  T
C1988      N1993   1.157       .  T
C1989      N1991   1.157       .  T
C1990      N1992   1.157       .  T
C1995      C1996   1.414       .  A
C1995      C2000   1.413       .  A
C1996      C1997   1.410       .  A
C1996      C2001   1.452       .  S
C1997      C1998   1.416       .  A
C1997      C2004   1.451       .  S
C1998      C1999   1.413       .  A
C1999      C2000   1.411       .  A
C1999      C2002   1.451       .  S
C2000      C2003   1.449       .  S
C2001      N2008   1.157       .  T
C2002      N2007   1.157       .  T
C2003      N2005   1.156       .  T
C2004      N2006   1.157       .  T
C2009      C2010   1.414       .  A
C2009      C2014   1.414       .  A
C2010      C2011   1.412       .  A
C2010      C2015   1.451       .  S
C2011      C2012   1.412   1_655  A
C2011      C2018   1.451       .  S
C2012      C2013   1.412       .  A
C2013      C2014   1.407   1_455  A
C2013      C2016   1.452       .  S
C2014      C2017   1.452   1_655  S
C2015      N2022   1.157       .  T
C2016      N2021   1.157       .  T
C2017      N2019   1.157       .  T
C2018      N2020   1.157       .  T
C2023      C2024   1.413       .  A
C2023      C2028   1.414       .  A
C2024      C2025   1.414       .  A
C2024      C2029   1.450       .  S
C2025      C2026   1.410       .  A
C2025      C2032   1.449       .  S
C2026      C2027   1.412       .  A
C2027      C2028   1.407       .  A
C2027      C2030   1.453       .  S
C2028      C2031   1.452       .  S
C2029      N2036   1.157       .  T
C2030      N2035   1.157       .  T
C2031      N2033   1.157       .  T
C2032      N2034   1.157       .  T
C2037      C2038   1.418       .  A
C2037      C2042   1.420       .  A
C2038      C2039   1.414       .  A
C2038      C2043   1.450       .  S
C2039      C2040   1.416       .  A
C2039      C2046   1.452       .  S
C2040      C2041   1.414       .  A
C2041      C2042   1.409       .  A
C2041      C2044   1.453       .  S
C2042      C2045   1.452       .  S
C2043      N2050   1.158       .  T
C2044      N2049   1.157       .  T
C2045      N2047   1.158       .  T
C2046      N2048   1.157       .  T
C2051      C2052   1.406       .  A
C2051      C2056   1.412       .  A
C2052      C2053   1.398       .  A
C2052      C2057   1.451       .  S
C2053      C2054   1.414       .  A
C2053      C2059   1.446       .  S
C2054      C2055   1.413       .  A
C2055      C2056   1.416       .  A
C2055      C2058   1.449       .  S
C2056      C3349   1.448       .  S
C2057      N2061   1.156       .  T
C2058      N3351   1.157       .  T
C2059      N2060   1.154       .  T
C2062      C2063   1.412       .  A
C2062      C2067   1.407       .  A
C2063      C2064   1.416       .  A
C2063      C3352   1.449       .  S
C2064      C2065   1.412       .  A
C2064      C2070   1.448       .  S
C2065      C2066   1.411       .  A
C2066      C2067   1.398       .  A
C2066      C2068   1.441       .  S
C2067      C2069   1.453       .  S
C2068      N2072   1.152       .  T
C2069      N2071   1.156       .  T
C2070      N3353   1.157       .  T
C2073      C2074   1.421       .  A
C2073      C2078   1.414       .  A
C2074      C2075   1.408       .  A
C2074      C2079   1.445       .  S
C2075      C2076   1.406       .  A
C2075      C2080   1.453       .  S
C2076      C2077   1.409       .  A
C2076      C2131   1.493       .  S
C2077      C2078   1.411       .  A
C2077      C3355   1.449       .  S
C2078      C3356   1.450       .  S
C2079      N2082   1.156       .  T
C2080      N2081   1.157       .  T
C2083      C2084   1.414       .  A
C2083      C3360   1.411       .  A
C2084      C2085   1.412       .  A
C2084      C2087   1.452       .  S
C2085      C2086   1.415       .  A
C2085      C2088   1.451       .  S
C2086      C3359   1.416       .  A
C2086      C3333   1.494       .  S
C2087      N2090   1.157       .  T
C2088      N2089   1.157       .  T
C2091      C2092   1.415       .  A
C2091      C2096   1.417       .  A
C2092      C2093   1.412       .  A
C2092      C2097   1.450       .  S
C2093      C2094   1.409       .  A
C2093      C3365   1.450       .  S
C2094      C2095   1.408       .  A
C2094      C3332   1.482       .  S
C2095      C2096   1.409       .  A
C2095      C2098   1.453       .  S
C2096      C2099   1.447       .  S
C2097      N2102   1.157       .  T
C2098      N2101   1.157       .  T
C2099      N2100   1.156       .  T
C2103      C2104   1.408       .  A
C2103      C2108   1.411       .  A
C2104      C2105   1.413       .  A
C2104      C2109   1.451       .  S
C2105      C2106   1.419       .  A
C2105      C2112   1.450       .  S
C2106      C2107   1.419       .  A
C2107      C2108   1.410       .  A
C2107      C2110   1.452       .  S
C2108      C2111   1.453       .  S
C2109      N2116   1.157       .  T
C2110      N2115   1.158       .  T
C2111      N2113   1.157       .  T
C2112      N2114   1.157       .  T
C2117      C2118   1.410       .  A
C2117      C2122   1.410       .  A
C2118      C2119   1.416       .  A
C2118      C2123   1.450       .  S
C2119      C2120   1.418       .  A
C2119      C2126   1.451       .  S
C2120      C2121   1.419       .  A
C2121      C2122   1.407       .  A
C2121      C2124   1.453       .  S
C2122      C2125   1.453       .  S
C2123      N2130   1.157       .  T
C2124      N2129   1.157       .  T
C2125      N2127   1.157       .  T
C2126      N2128   1.157       .  T
C2131      C2132   1.407       .  A
C2131      C2136   1.413       .  A
C2132      C2133   1.409       .  A
C2132      C2137   1.450       .  S
C2133      C2134   1.415       .  A
C2133      C2140   1.450       .  S
C2134      C2135   1.412       .  A
C2135      C2136   1.411       .  A
C2135      C2138   1.451       .  S
C2136      C2139   1.452       .  S
C2137      N2144   1.157       .  T
C2138      N2143   1.157   1_565  T
C2139      N2141   1.157       .  T
C2140      N2142   1.157       .  T
C2145      C2146   1.414       .  A
C2145      C2150   1.409       .  A
C2146      C2147   1.409       .  A
C2146      C2151   1.452       .  S
C2147      C2148   1.419       .  A
C2147      C2154   1.452       .  S
C2148      C2149   1.427       .  A
C2149      C2150   1.417       .  A
C2149      C2152   1.449       .  S
C2150      C2153   1.451       .  S
C2151      N2158   1.157       .  T
C2152      N2157   1.158       .  T
C2153      N2155   1.157       .  T
C2154      N2156   1.158   1_655  T
C2159      C2160   1.426   1_655  A
C2159      C2164   1.420       .  A
C2160      C2161   1.412       .  A
C2160      C2165   1.450       .  S
C2161      C2162   1.414   1_455  A
C2161      C2168   1.453       .  S
C2162      C2163   1.422       .  A
C2163      C2164   1.420       .  A
C2163      C2166   1.449       .  S
C2164      C2167   1.453       .  S
C2165      N2172   1.157       .  T
C2166      N2171   1.158       .  T
C2167      N2169   1.158       .  T
C2168      N2170   1.157       .  T
N2173      N2174   1.341       .  A
N2173      C2177   1.343       .  A
N2173     Cu2181   2.228       .  S
N2174      C2175   1.342       .  A
N2174     Cu2180   2.187       .  S
C2175      C2176   1.388       .  A
C2175      H2178   1.079       .  S
C2176      C2177   1.394       .  A
C2176      C2546   1.505   1_655  S
C2177      H2179   1.077       .  S
Cu2180     N2183   2.187       .  S
Cu2181     N3368   2.187       .  S
Cu2182     N2184   2.226       .  S
Cu2182     N3367   2.187       .  S
N2183      N2184   1.342       .  A
N2183      C2187   1.340       .  A
N2184      C2185   1.347       .  A
C2185      C2186   1.390       .  A
C2185      H2188   1.081       .  S
C2186      C2187   1.383       .  A
C2186      C2532   1.494       .  S
C2187      H2189   1.082       .  S
C2190      C2191   1.404   1_656  A
C2190      C2195   1.398       .  A
C2190      C2529   1.489       .  S
C2191      H2196   1.081       .  S
C2192      C2193   1.415       .  A
C2192      C2543   1.514       .  S
C2193      H2197   1.083       .  S
C2194      C2195   1.398       .  A
C2194      C2288   1.478       .  S
C2195      H2198   1.083       .  S
N2199      N2200   1.322       .  A
N2199      C2203   1.340       .  A
N2199     Cu2207   2.063       .  S
N2200      C2201   1.347       .  A
N2200     Cu2206   2.089       .  S
C2201      C2202   1.389       .  A
C2201      H2204   1.081       .  S
C2202      C2203   1.383       .  A
C2202      C2490   1.494       .  S
C2203      H2205   1.082       .  S
Cu2206     N2209   2.089       .  S
Cu2207     N2217   2.062       .  S
Cu2208     N2210   2.052       .  S
Cu2208     N2216   2.056       .  S
N2209      N2210   1.321       .  A
N2209      C2213   1.348       .  A
N2210      C2211   1.339       .  A
C2211      C2212   1.380       .  A
C2211      H2214   1.082       .  S
C2212      C2213   1.388       .  A
C2212      C2501   1.484       .  S
C2213      H2215   1.082       .  S
N2216      N2217   1.318       .  A
N2216      C2220   1.341       .  A
N2217      C2218   1.345       .  A
C2218      C2219   1.385       .  A
C2218      H2221   1.082       .  S
C2219      C2220   1.382       .  A
C2219      C2518   1.485       .  S
C2220      H2222   1.079       .  S
C2223      C2228   1.400       .  A
C2223      C2487   1.484       .  S
C2224      C2225   1.405       .  A
C2224      H2229   1.084       .  S
C2225      C2226   1.404       .  A
C2225      C2504   1.488       .  S
C2226      C2227   1.399       .  A
C2226      H2230   1.085       .  S
C2227      C2361   1.468       .  S
C2228      H2231   1.085       .  S
N2232      N2233   1.323       .  A
N2232      C2236   1.340       .  A
N2232     Cu2240   2.060       .  S
N2233      C2234   1.348       .  A
N2233     Cu2239   2.091       .  S
C2234      C2235   1.390       .  A
C2234      H2237   1.082       .  S
C2235      C2236   1.382       .  A
C2235      C2475   1.494       .  S
C2236      H2238   1.081       .  S
Cu2239     N2242   2.091       .  S
Cu2240     N2250   2.062       .  S
Cu2241     N2243   2.057       .  S
Cu2241     N2249   2.056       .  S
N2242      N2243   1.323       .  A
N2242      C2246   1.349       .  A
N2243      C2244   1.339       .  A
C2244      C2245   1.376       .  A
C2244      H2247   1.082       .  S
C2245      C2246   1.386       .  A
C2245      C2467   1.479       .  S
C2246      H2248   1.082       .  S
N2249      N2250   1.318       .  A
N2249      C2253   1.342   1_545  A
N2250      C2251   1.345   1_545  A
C2251      C2252   1.387       .  A
C2251      H2254   1.082       .  S
C2252      C2253   1.384       .  A
C2252      C2457   1.487       .  S
C2253      H2255   1.082       .  S
C2256      C3374   1.402       .  A
C2256      C3333   1.407       .  A
C2256      H2257   1.084       .  S
N2258      N2259   1.319       .  A
N2258      C2262   1.347       .  A
N2258     Cu2266   2.115       .  S
N2259      C2260   1.339       .  A
N2259     Cu2265   2.023       .  S
C2260      C2261   1.378       .  A
C2260      H2263   1.082       .  S
C2261      C2262   1.388       .  A
C2261      C2435   1.476       .  S
C2262      H2264   1.079       .  S
Cu2265     N2268   2.019       .  S
Cu2266     N2276   2.185   1_655  S
Cu2267     N2269   2.115       .  S
Cu2267     N2275   2.183   1_655  S
N2268      N2269   1.318       .  A
N2268      C2272   1.337       .  A
N2269      C2270   1.350       .  A
C2270      C2271   1.396       .  A
C2270      H2273   1.080       .  S
C2271      C2272   1.382       .  A
C2271      C2446   1.497       .  S
C2272      H2274   1.082       .  S
N2275      N2276   1.281       .  A
N2275      C3383   1.347       .  A
N2276      C3381   1.347       .  A
C2277      C2278   1.402       .  A
C2277      C2282   1.403       .  A
C2277      C2449   1.480       .  S
C2278      C2279   1.398       .  A
C2278      H2283   1.085       .  S
C2279      C2290   1.473       .  S
C2280      C2281   1.408       .  A
C2280      H2284   1.083       .  S
C2281      C2438   1.500       .  S
C2282      H2285   1.084       .  S
C2286      C2291   1.406       .  A
C2286      C2321   1.465       .  S
C2287      C2288   1.402       .  A
C2287      H2292   1.083   1_556  S
C2289      C2290   1.402       .  A
C2289      H2293   1.085       .  S
C2290      C2291   1.400       .  A
C2291      H2294   1.084       .  S
N2295      N2296   1.319       .  A
N2295      C2299   1.339       .  A
N2295     Cu2303   2.059       .  S
N2296      C2297   1.346       .  A
N2296     Cu2302   2.074       .  S
C2297      C2298   1.391       .  A
C2297      H2300   1.081       .  S
C2298      C2299   1.386       .  A
C2298      C2421   1.496       .  S
C2299      H2301   1.081       .  S
Cu2302     N2305   2.076       .  S
Cu2303     N2313   2.060       .  S
Cu2304     N2306   2.075       .  S
Cu2304     N2312   2.075       .  S
N2305      N2306   1.323       .  A
N2305      C2309   1.346       .  A
N2306      C2307   1.343       .  A
C2307      C2308   1.384       .  A
C2307      H2310   1.082       .  S
C2308      C2309   1.384       .  A
C2308      C2407   1.487       .  S
C2309      H2311   1.082       .  S
N2312      N2313   1.320       .  A
N2312      C2316   1.347       .  A
N2313      C2314   1.341       .  A
C2314      C2315   1.383       .  A
C2314      H2317   1.082       .  S
C2315      C2316   1.389       .  A
C2315      C2393   1.491       .  S
C2316      H2318   1.082       .  S
C2319      C2320   1.404       .  A
C2319      C2324   1.409       .  A
C2319      C2424   1.497       .  S
C2320      C2321   1.397       .  A
C2320      H2325   1.084       .  S
C2322      C2323   1.399       .  A
C2322      H2326   1.084       .  S
C2323      C2410   1.483       .  S
C2324      H2327   1.083       .  S
N2328      N2329   1.321       .  A
N2328      C2332   1.345       .  A
N2328     Cu2336   2.064       .  S
N2329      C2330   1.347       .  A
N2329     Cu2335   2.086       .  S
C2330      C2331   1.388       .  A
C2330      H2333   1.082       .  S
C2331      C2332   1.381       .  A
C2331      C2382   1.488       .  S
C2332      H2334   1.082       .  S
Cu2335     N2338   2.086       .  S
Cu2336     N2346   2.063       .  S
Cu2337     N2339   2.077       .  S
Cu2337     N2345   2.077       .  S
N2338      N2339   1.324       .  A
N2338      C2342   1.347       .  A
N2339      C2340   1.346       .  A
C2340      C2341   1.381       .  A
C2340      H2343   1.082       .  S
C2341      C2342   1.382       .  A
C2341      C2368   1.482       .  S
C2342      H2344   1.082       .  S
N2345      N2346   1.322       .  A
N2345      C2349   1.347       .  A
N2346      C2347   1.341       .  A
C2347      C2348   1.379       .  A
C2347      H2350   1.082       .  S
C2348      C2349   1.385       .  A
C2348      C2396   1.482   1_455  S
C2349      H2351   1.082       .  S
C2352      C2353   1.404       .  A
C2352      C2357   1.401       .  A
C2352      C2365   1.484       .  S
C2353      C2354   1.403       .  A
C2353      H2358   1.084       .  S
C2354      C2363   1.473       .  S
C2355      C2356   1.403       .  A
C2355      H2359   1.084       .  S
C2356      C2379   1.496       .  S
C2357      H2360   1.084       .  S
C2361      C2362   1.405       .  A
C2362      C2363   1.408       .  A
C2362      H2364   1.083       .  S
C2365      C2366   1.412       .  A
C2365      C2370   1.412       .  A
C2366      C2367   1.409       .  A
C2366      C2371   1.451       .  S
C2367      C2368   1.412       .  A
C2367      C2374   1.451       .  S
C2368      C2369   1.412       .  A
C2369      C2370   1.412       .  A
C2369      C2372   1.450       .  S
C2370      C2373   1.450       .  S
C2371      N2378   1.157       .  T
C2372      N2377   1.157       .  T
C2373      N2375   1.157       .  T
C2374      N2376   1.157       .  T
C2379      C2380   1.416       .  A
C2379      C2384   1.416       .  A
C2380      C2381   1.411       .  A
C2380      C2385   1.452       .  S
C2381      C2382   1.412       .  A
C2381      C2388   1.452       .  S
C2382      C2383   1.412       .  A
C2383      C2384   1.414       .  A
C2383      C2386   1.451       .  S
C2384      C2387   1.451       .  S
C2385      N2392   1.157       .  T
C2386      N2391   1.157       .  T
C2387      N2389   1.157       .  T
C2388      N2390   1.157       .  T
C2393      C2394   1.416       .  A
C2393      C2398   1.417       .  A
C2394      C2395   1.411       .  A
C2394      C2399   1.451       .  S
C2395      C2396   1.411       .  A
C2395      C2402   1.452       .  S
C2396      C2397   1.410   1_655  A
C2397      C2398   1.410   1_455  A
C2397      C2400   1.452       .  S
C2398      C2401   1.452       .  S
C2399      N2406   1.157       .  T
C2400      N2405   1.157       .  T
C2401      N2403   1.157       .  T
C2402      N2404   1.157       .  T
C2407      C2408   1.414       .  A
C2407      C2412   1.416       .  A
C2408      C2409   1.413       .  A
C2408      C2413   1.450       .  S
C2409      C2410   1.410       .  A
C2409      C2416   1.450       .  S
C2410      C2411   1.411       .  A
C2411      C2412   1.407       .  A
C2411      C2414   1.453       .  S
C2412      C2415   1.452       .  S
C2413      N2420   1.157       .  T
C2414      N2419   1.157       .  T
C2415      N2417   1.157       .  T
C2416      N2418   1.157       .  T
C2421      C2422   1.417       .  A
C2421      C2426   1.418       .  A
C2422      C2423   1.412       .  A
C2422      C2427   1.451       .  S
C2423      C2424   1.417       .  A
C2423      C2430   1.453       .  S
C2424      C2425   1.416       .  A
C2425      C2426   1.409       .  A
C2425      C2428   1.453       .  S
C2426      C2429   1.452       .  S
C2427      N2434   1.158       .  T
C2428      N2433   1.158       .  T
C2429      N2431   1.158       .  T
C2430      N2432   1.157       .  T
C2435      C2436   1.407       .  A
C2435      C2440   1.407       .  A
C2436      C2437   1.403       .  A
C2436      C2441   1.455       .  S
C2437      C2438   1.423       .  A
C2437      C2443   1.449       .  S
C2438      C2439   1.420       .  A
C2439      C2440   1.414       .  A
C2439      C2442   1.449       .  S
C2440      C3391   1.450       .  S
C2441      N2445   1.157       .  T
C2442      N3393   1.157       .  T
C2443      N2444   1.156       .  T
C2446      C2447   1.422       .  A
C2446      C2451   1.417       .  A
C2447      C2448   1.411       .  A
C2447      C3394   1.450       .  S
C2448      C2449   1.403       .  A
C2448      C2454   1.450       .  S
C2449      C2450   1.408       .  A
C2450      C2451   1.408       .  A
C2450      C2452   1.450       .  S
C2451      C2453   1.446       .  S
C2452      N2456   1.156       .  T
C2453      N2455   1.156       .  T
C2454      N3395   1.157       .  T
C2457      C2458   1.418       .  A
C2457      C2462   1.413       .  A
C2458      C2459   1.408       .  A
C2458      C2463   1.451   1_565  S
C2459      C2460   1.408       .  A
C2459      C2464   1.452       .  S
C2460      C2461   1.410       .  A
C2460      C2515   1.494       .  S
C2461      C2462   1.411       .  A
C2461      C3397   1.449       .  S
C2462      C3398   1.450       .  S
C2463      N2466   1.158       .  T
C2464      N2465   1.157       .  T
C2467      C2468   1.412       .  A
C2467      C3402   1.411       .  A
C2468      C2469   1.407       .  A
C2468      C2471   1.452       .  S
C2469      C2470   1.414       .  A
C2469      C2472   1.453       .  S
C2470      C3401   1.413       .  A
C2470      C3375   1.486       .  S
C2471      N2474   1.157       .  T
C2472      N2473   1.157       .  T
C2475      C2476   1.416       .  A
C2475      C2480   1.421       .  A
C2476      C2477   1.412       .  A
C2476      C2481   1.450       .  S
C2477      C2478   1.411       .  A
C2477      C3407   1.451       .  S
C2478      C2479   1.408       .  A
C2478      C3374   1.484       .  S
C2479      C2480   1.408       .  A
C2479      C2482   1.453       .  S
C2480      C2483   1.452       .  S
C2481      N2486   1.157       .  T
C2482      N2485   1.157       .  T
C2483      N2484   1.158       .  T
C2487      C2488   1.410       .  A
C2487      C2492   1.409       .  A
C2488      C2489   1.414       .  A
C2488      C2493   1.450       .  S
C2489      C2490   1.418       .  A
C2489      C2496   1.451       .  S
C2490      C2491   1.419       .  A
C2491      C2492   1.407       .  A
C2491      C2494   1.451       .  S
C2492      C2495   1.453       .  S
C2493      N2500   1.157       .  T
C2494      N2499   1.157       .  T
C2495      N2497   1.157       .  T
C2496      N2498   1.158       .  T
C2501      C2502   1.411       .  A
C2501      C2506   1.415       .  A
C2502      C2503   1.414       .  A
C2502      C2507   1.450       .  S
C2503      C2504   1.412       .  A
C2503      C2510   1.449       .  S
C2504      C2505   1.413       .  A
C2505      C2506   1.406       .  A
C2505      C2508   1.453       .  S
C2506      C2509   1.453       .  S
C2507      N2514   1.157       .  T
C2508      N2513   1.157       .  T
C2509      N2511   1.157       .  T
C2510      N2512   1.157       .  T
C2515      C2516   1.408       .  A
C2515      C2520   1.413       .  A
C2516      C2517   1.412       .  A
C2516      C2521   1.450       .  S
C2517      C2518   1.416       .  A
C2517      C2524   1.450       .  S
C2518      C2519   1.412       .  A
C2519      C2520   1.407       .  A
C2519      C2522   1.452       .  S
C2520      C2523   1.452       .  S
C2521      N2528   1.157       .  T
C2522      N2527   1.157       .  T
C2523      N2525   1.157       .  T
C2524      N2526   1.157       .  T
C2529      C2530   1.416       .  A
C2529      C2534   1.407   1_655  A
C2530      C2531   1.410       .  A
C2530      C2535   1.451       .  S
C2531      C2532   1.414       .  A
C2531      C2538   1.452       .  S
C2532      C2533   1.419   1_655  A
C2533      C2534   1.413       .  A
C2533      C2536   1.451       .  S
C2534      C2537   1.449       .  S
C2535      N2542   1.157       .  T
C2536      N2541   1.157       .  T
C2537      N2539   1.157       .  T
C2538      N2540   1.158       .  T
C2543      C2544   1.422   1_655  A
C2543      C2548   1.413       .  A
C2544      C2545   1.415       .  A
C2544      C2549   1.448       .  S
C2545      C2546   1.418       .  A
C2545      C2552   1.452       .  S
C2546      C2547   1.422   1_455  A
C2547      C2548   1.410       .  A
C2547      C2550   1.449       .  S
C2548      C2551   1.453       .  S
C2549      N2556   1.158       .  T
C2550      N2555   1.158       .  T
C2551      N2553   1.157       .  T
C2552      N2554   1.158       .  T
N2557      N2558   1.341       .  A
N2557      C2561   1.345       .  A
N2557     Cu2565   2.227       .  S
N2558      C2559   1.340       .  A
N2558     Cu2564   2.168       .  S
C2559      C2560   1.383       .  A
C2559      H2562   1.080       .  S
C2560      C2561   1.393       .  A
C2560      C2930   1.498       .  S
C2561      H2563   1.079       .  S
Cu2564     N2567   2.169       .  S
Cu2566     N2568   2.227       .  S
N2567      N2568   1.341       .  A
N2567      C2571   1.339       .  A
N2568      C2569   1.348       .  A
C2569      C2570   1.393       .  A
C2569      H2572   1.081       .  S
C2570      C2571   1.381       .  A
C2570      C2916   1.494       .  S
C2571      H2573   1.082       .  S
C2574      C2575   1.402       .  A
C2574      C2579   1.400       .  A
C2574      C2913   1.488       .  S
C2575      C2960   1.409       .  A
C2575      H2580   1.082       .  S
C2576      C2959   1.411   1_554  A
C2576      C2577   1.414       .  A
C2576      C2927   1.512       .  S
C2577      C2962   1.394   1_554  A
C2577      H2581   1.083       .  S
C2578      C2961   1.401       .  A
C2578      C2579   1.401       .  A
C2578      C2672   1.479       .  S
C2579      H2582   1.081       .  S
N2583      N2584   1.324       .  A
N2583      C2587   1.341       .  A
N2583     Cu2591   2.069       .  S
N2584      C2585   1.348       .  A
N2584     Cu2590   2.086       .  S
C2585      C2586   1.385       .  A
C2585      H2588   1.082       .  S
C2586      C2587   1.380       .  A
C2586      C2874   1.480       .  S
C2587      H2589   1.082       .  S
Cu2590     N2593   2.086       .  S
Cu2591     N2601   2.068       .  S
Cu2592     N2594   2.064       .  S
Cu2592     N2600   2.063       .  S
N2593      N2594   1.323       .  A
N2593      C2597   1.348       .  A
N2594      C2595   1.342       .  A
C2595      C2596   1.381       .  A
C2595      H2598   1.082       .  S
C2596      C2597   1.386       .  A
C2596      C2885   1.485       .  S
C2597      H2599   1.082       .  S
N2600      N2601   1.319       .  A
N2600      C2604   1.342       .  A
N2601      C2602   1.347       .  A
C2602      C2603   1.387   1_655  A
C2602      H2605   1.082   1_655  S
C2603      C2604   1.384   1_455  A
C2603      C2902   1.489       .  S
C2604      H2606   1.082   1_655  S
C2607      C2992   1.404       .  A
C2607      C2612   1.404       .  A
C2607      C2871   1.488       .  S
C2608      C2991   1.405   1_554  A
C2608      C2609   1.404       .  A
C2608      H2613   1.084       .  S
C2609      C2610   1.401       .  A
C2609      C2888   1.485       .  S
C2610      C2611   1.400       .  A
C2610      H2614   1.084       .  S
C2611      C2996   1.400   1_554  A
C2611      C2745   1.469       .  S
C2612      C2995   1.403       .  A
C2612      H2615   1.084       .  S
N2616      N2617   1.323       .  A
N2616      C2620   1.339       .  A
N2616     Cu2624   2.056       .  S
N2617      C2618   1.349       .  A
N2617     Cu2623   2.095       .  S
C2618      C2619   1.388       .  A
C2618      H2621   1.082       .  S
C2619      C2620   1.379       .  A
C2619      C2859   1.488       .  S
C2620      H2622   1.082       .  S
Cu2623     N2626   2.094       .  S
Cu2624     N2634   2.058       .  S
Cu2625     N2627   2.061       .  S
Cu2625     N2633   2.059       .  S
N2626      N2627   1.323       .  A
N2626      C2630   1.350       .  A
N2627      C2628   1.340       .  A
C2628      C2629   1.378       .  A
C2628      H2631   1.082       .  S
C2629      C2630   1.387       .  A
C2629      C2851   1.481       .  S
C2630      H2632   1.082       .  S
N2633      N2634   1.319       .  A
N2633      C2637   1.343       .  A
N2634      C2635   1.345       .  A
C2635      C2636   1.383       .  A
C2635      H2638   1.082       .  S
C2636      C2637   1.381       .  A
C2636      C2841   1.481       .  S
C2637      H2639   1.082       .  S
C2640      H2641   1.084       .  S
N2642      N2643   1.320       .  A
N2642      C2646   1.349       .  A
N2642     Cu2650   2.118       .  S
N2643      C2644   1.339       .  A
N2643     Cu2649   2.029       .  S
C2644      C2645   1.378       .  A
C2644      H2647   1.082       .  S
C2645      C2646   1.391       .  A
C2645      C2819   1.481       .  S
C2646      H2648   1.080       .  S
Cu2649     N2652   2.020       .  S
Cu2650     N2660   2.190       .  S
Cu2651     N2653   2.108       .  S
Cu2651     N2659   2.172       .  S
N2652      N2653   1.316       .  A
N2652      C2656   1.336       .  A
N2653      C2654   1.350       .  A
C2654      C2655   1.395       .  A
C2654      H2657   1.080       .  S
C2655      C2656   1.384       .  A
C2655      C2830   1.498       .  S
C2656      H2658   1.081       .  S
N2659      N2660   1.283       .  A
C2661      C2662   1.403   1_545  A
C2661      C2666   1.406   1_554  A
C2661      C2833   1.482       .  S
C2662      C2663   1.394   1_554  A
C2662      H2667   1.085       .  S
C2663      C3048   1.397       .  A
C2663      C2674   1.469       .  S
C2664      C3047   1.399       .  A
C2664      C2665   1.409   1_565  A
C2664      H2668   1.082       .  S
C2665      C3050   1.414       .  A
C2665      C2822   1.505       .  S
C2666      C3049   1.405   1_545  A
C2666      H2669   1.084       .  S
C2670      C3055   1.409   1_565  A
C2670      C2675   1.406       .  A
C2670      C2705   1.469       .  S
C2671      C3054   1.410   1_545  A
C2671      C2672   1.400       .  A
C2671      H2676   1.084       .  S
C2672      C3057   1.395       .  A
C2673      C3056   1.393       .  A
C2673      C2674   1.398   1_545  A
C2673      H2677   1.083       .  S
C2674      C2675   1.398       .  A
C2675      H2678   1.084       .  S
N2679      N2680   1.321       .  A
N2679      C2683   1.343       .  A
N2679     Cu2687   2.080       .  S
N2680      C2681   1.347       .  A
N2680     Cu2686   2.083       .  S
C2681      C2682   1.392       .  A
C2681      H2684   1.080       .  S
C2682      C2683   1.391       .  A
C2682      C2805   1.507       .  S
C2683      H2685   1.081       .  S
Cu2686     N2689   2.083       .  S
Cu2687     N2697   2.080       .  S
Cu2688     N2690   2.069       .  S
Cu2688     N2696   2.069       .  S
N2689      N2690   1.322       .  A
N2689      C2693   1.347       .  A
N2690      C2691   1.344       .  A
C2691      C2692   1.383       .  A
C2691      H2694   1.082       .  S
C2692      C2693   1.386       .  A
C2692      C2791   1.484       .  S
C2693      H2695   1.082       .  S
N2696      N2697   1.322       .  A
N2696      C2700   1.343       .  A
N2697      C2698   1.347       .  A
C2698      C2699   1.386       .  A
C2698      H2701   1.082       .  S
C2699      C2700   1.383       .  A
C2699      C2777   1.488       .  S
C2700      H2702   1.082       .  S
C2703      C2704   1.409       .  A
C2703      C2708   1.411   1_554  A
C2703      C2808   1.502       .  S
C2704      C2705   1.403   1_554  A
C2704      H2709   1.084       .  S
C2705      C3090   1.397       .  A
C2706      C3089   1.397       .  A
C2706      C2707   1.401       .  A
C2706      H2710   1.084       .  S
C2707      C3092   1.406       .  A
C2707      C2794   1.491       .  S
C2708      C3091   1.403       .  A
C2708      H2711   1.083       .  S
N2712      N2713   1.325   1_565  A
N2712      C2716   1.344       .  A
N2712     Cu2720   2.072       .  S
N2713      C2714   1.349       .  A
N2713     Cu2719   2.096       .  S
C2714      C2715   1.387       .  A
C2714      H2717   1.082       .  S
C2715      C2716   1.379   1_545  A
C2715      C2766   1.485       .  S
C2716      H2718   1.082       .  S
Cu2719     N2722   2.095       .  S
Cu2720     N2730   2.072       .  S
Cu2721     N2723   2.067       .  S
Cu2721     N2729   2.067   1_545  S
N2722      N2723   1.323       .  A
N2722      C2726   1.351       .  A
N2723      C2724   1.341       .  A
C2724      C2725   1.381       .  A
C2724      H2727   1.082       .  S
C2725      C2726   1.390       .  A
C2725      C2752   1.492       .  S
C2726      H2728   1.082       .  S
N2729      N2730   1.320       .  A
N2729      C2733   1.345       .  A
N2730      C2731   1.346       .  A
C2731      C2732   1.385       .  A
C2731      H2734   1.082       .  S
C2732      C2733   1.383       .  A
C2732      C2780   1.486       .  S
C2733      H2735   1.082       .  S
C2736      C2737   1.400       .  A
C2736      C2741   1.402       .  A
C2736      C2749   1.481       .  S
C2737      C2738   1.400       .  A
C2737      H2742   1.084       .  S
C2738      C3123   1.402   1_554  A
C2738      C2747   1.467       .  S
C2739      C3122   1.398       .  A
C2739      C2740   1.398       .  A
C2739      H2743   1.085       .  S
C2740      C3125   1.402       .  A
C2740      C2763   1.484       .  S
C2741      C3124   1.402   1_554  A
C2741      H2744   1.084       .  S
C2745      C3345   1.405       .  A
C2745      C2746   1.399       .  A
C2746      C2747   1.397       .  A
C2746      H2748   1.085       .  S
C2747      C3346   1.399       .  A
C2749      C2750   1.408       .  A
C2749      C2754   1.410       .  A
C2750      C2751   1.409       .  A
C2750      C2755   1.452       .  S
C2751      C2752   1.418       .  A
C2751      C2758   1.451       .  S
C2752      C2753   1.416       .  A
C2753      C2754   1.414       .  A
C2753      C2756   1.450       .  S
C2754      C2757   1.451       .  S
C2755      N2762   1.157       .  T
C2756      N2761   1.157   1_545  T
C2757      N2759   1.157       .  T
C2758      N2760   1.157       .  T
C2763      C2764   1.410       .  A
C2763      C2768   1.411       .  A
C2764      C2765   1.409       .  A
C2764      C2769   1.451       .  S
C2765      C2766   1.413       .  A
C2765      C2772   1.450       .  S
C2766      C2767   1.412       .  A
C2767      C2768   1.414       .  A
C2767      C2770   1.450   1_545  S
C2768      C2771   1.450   1_545  S
C2769      N2776   1.157       .  T
C2770      N2775   1.157       .  T
C2771      N2773   1.157       .  T
C2772      N2774   1.157       .  T
C2777      C2778   1.413       .  A
C2777      C2782   1.414       .  A
C2778      C2779   1.409       .  A
C2778      C2783   1.452       .  S
C2779      C2780   1.412       .  A
C2779      C2786   1.448       .  S
C2780      C2781   1.414       .  A
C2781      C2782   1.413       .  A
C2781      C2784   1.451   1_565  S
C2782      C2785   1.451       .  S
C2783      N2790   1.157       .  T
C2784      N2789   1.157       .  T
C2785      N2787   1.157   1_565  T
C2786      N2788   1.156       .  T
C2791      C2792   1.411       .  A
C2791      C2796   1.412       .  A
C2792      C2793   1.415       .  A
C2792      C2797   1.450       .  S
C2793      C2794   1.414       .  A
C2793      C2800   1.450       .  S
C2794      C2795   1.415       .  A
C2795      C2796   1.408       .  A
C2795      C2798   1.452       .  S
C2796      C2799   1.452       .  S
C2797      N2804   1.157       .  T
C2798      N2803   1.157       .  T
C2799      N2801   1.157       .  T
C2800      N2802   1.157       .  T
C2805      C2806   1.421       .  A
C2805      C2810   1.419       .  A
C2806      C2807   1.417       .  A
C2806      C2811   1.450       .  S
C2807      C2808   1.416       .  A
C2807      C2814   1.452       .  S
C2808      C2809   1.415       .  A
C2809      C2810   1.410       .  A
C2809      C2812   1.453       .  S
C2810      C2813   1.451       .  S
C2811      N2818   1.158       .  T
C2812      N2817   1.157       .  T
C2813      N2815   1.157       .  T
C2814      N2816   1.158       .  T
C2819      C2820   1.407       .  A
C2819      C2824   1.409       .  A
C2820      C2821   1.405       .  A
C2820      C2825   1.456       .  S
C2821      C2822   1.425       .  A
C2821      C2827   1.447       .  S
C2822      C2823   1.419       .  A
C2823      C2824   1.416       .  A
C2823      C2826   1.450       .  S
C2825      N2829   1.157       .  T
C2827      N2828   1.156       .  T
C2830      C2831   1.420       .  A
C2830      C2835   1.418       .  A
C2831      C2832   1.408       .  A
C2832      C2833   1.407       .  A
C2832      C2838   1.451   1_545  S
C2833      C2834   1.411       .  A
C2834      C2835   1.411       .  A
C2834      C2836   1.452   1_554  S
C2835      C2837   1.448       .  S
C2836      N2840   1.157       .  T
C2837      N2839   1.157       .  T
C2841      C2842   1.415       .  A
C2841      C2846   1.410       .  A
C2842      C2843   1.410       .  A
C2842      C2847   1.451       .  S
C2843      C2844   1.411       .  A
C2843      C2848   1.451       .  S
C2844      C2845   1.412       .  A
C2844      C2899   1.494       .  S
C2845      C2846   1.409       .  A
C2847      N2850   1.157       .  T
C2848      N2849   1.157       .  T
C2851      C2852   1.410       .  A
C2852      C2853   1.406       .  A
C2852      C2855   1.452       .  S
C2853      C2854   1.416       .  A
C2853      C2856   1.451       .  S
C2855      N2858   1.157       .  T
C2856      N2857   1.156       .  T
C2859      C2860   1.413       .  A
C2859      C2864   1.418       .  A
C2860      C2861   1.413       .  A
C2860      C2865   1.450       .  S
C2861      C2862   1.410       .  A
C2862      C2863   1.409       .  A
C2863      C2864   1.407       .  A
C2863      C2866   1.453       .  S
C2864      C2867   1.452       .  S
C2865      N2870   1.157       .  T
C2866      N2869   1.157       .  T
C2867      N2868   1.158       .  T
C2871      C2872   1.416       .  A
C2871      C2876   1.412       .  A
C2872      C2873   1.411       .  A
C2872      C2877   1.452       .  S
C2873      C2874   1.409       .  A
C2873      C2880   1.450       .  S
C2874      C2875   1.413       .  A
C2875      C2876   1.408       .  A
C2875      C2878   1.452       .  S
C2876      C2879   1.451       .  S
C2877      N2884   1.157       .  T
C2878      N2883   1.157       .  T
C2879      N2881   1.157       .  T
C2880      N2882   1.157       .  T
C2885      C2886   1.412       .  A
C2885      C2890   1.415       .  A
C2886      C2887   1.413       .  A
C2886      C2891   1.450       .  S
C2887      C2888   1.412       .  A
C2887      C2894   1.450       .  S
C2888      C2889   1.411       .  A
C2889      C2890   1.409       .  A
C2889      C2892   1.452       .  S
C2890      C2893   1.452       .  S
C2891      N2898   1.157       .  T
C2892      N2897   1.157       .  T
C2893      N2895   1.157       .  T
C2894      N2896   1.157       .  T
C2899      C2900   1.408       .  A
C2899      C2904   1.411       .  A
C2900      C2901   1.408       .  A
C2900      C2905   1.451       .  S
C2901      C2902   1.417       .  A
C2901      C2908   1.451       .  S
C2902      C2903   1.415       .  A
C2903      C2904   1.412       .  A
C2903      C2906   1.451       .  S
C2904      C2907   1.451       .  S
C2905      N2912   1.157       .  T
C2906      N2911   1.157       .  T
C2907      N2909   1.157       .  T
C2908      N2910   1.157       .  T
C2913      C2914   1.414       .  A
C2913      C2918   1.407       .  A
C2914      C2915   1.408       .  A
C2914      C2919   1.450       .  S
C2915      C2916   1.414       .  A
C2915      C2922   1.451       .  S
C2916      C2917   1.421       .  A
C2917      C2918   1.415       .  A
C2917      C2920   1.451       .  S
C2918      C2921   1.450       .  S
C2919      N2926   1.156       .  T
C2920      N2925   1.157       .  T
C2921      N2923   1.157       .  T
C2922      N2924   1.157       .  T
C2927      C2928   1.421       .  A
C2927      C2932   1.412       .  A
C2928      C2929   1.414       .  A
C2928      C2933   1.447       .  S
C2929      C2930   1.415       .  A
C2929      C2936   1.452       .  S
C2930      C2931   1.420       .  A
C2931      C2932   1.408       .  A
C2931      C2934   1.449       .  S
C2932      C2935   1.453       .  S
C2933      N2940   1.158   1_554  T
C2934      N2939   1.158       .  T
C2935      N2937   1.157       .  T
C2936      N2938   1.157       .  T
N2941      N2942   1.341       .  A
N2941      C2945   1.343       .  A
N2941     Cu2949   2.224       .  S
N2942      C2943   1.346       .  A
N2942     Cu2948   2.196       .  S
C2943      C2944   1.392       .  A
C2943      H2946   1.078       .  S
C2944      C2945   1.393       .  A
C2944      C3314   1.513       .  S
C2945      H2947   1.080       .  S
Cu2948     N2951   2.199       .  S
Cu2950     N2952   2.218       .  S
N2951      N2952   1.341       .  A
N2951      C2955   1.349       .  A
N2952      C2953   1.340       .  A
C2953      C2954   1.388       .  A
C2953      H2956   1.081       .  S
C2954      C2955   1.392       .  A
C2954      C3300   1.503       .  S
C2955      H2957   1.081       .  S
C2958      C2959   1.408       .  A
C2958      C2963   1.404       .  A
C2958      C3297   1.495       .  S
C2959      H2964   1.077       .  S
C2960      C2961   1.413       .  A
C2960      C3311   1.512       .  S
C2961      H2965   1.084       .  S
C2962      C2963   1.398       .  A
C2962      C3056   1.474       .  S
C2963      H2966   1.084       .  S
N2967      N2968   1.323       .  A
N2967      C2971   1.340       .  A
N2967     Cu2975   2.054       .  S
N2968      C2969   1.350       .  A
N2968     Cu2974   2.095       .  S
C2969      C2970   1.388       .  A
C2969      H2972   1.082       .  S
C2970      C2971   1.376       .  A
C2970      C3258   1.483       .  S
C2971      H2973   1.082       .  S
Cu2974     N2977   2.095       .  S
Cu2975     N2985   2.053       .  S
Cu2976     N2978   2.071       .  S
Cu2976     N2984   2.071       .  S
N2977      N2978   1.324       .  A
N2977      C2981   1.349       .  A
N2978      C2979   1.343       .  A
C2979      C2980   1.382       .  A
C2979      H2982   1.082       .  S
C2980      C2981   1.387       .  A
C2980      C3269   1.490       .  S
C2981      H2983   1.082       .  S
N2984      N2985   1.319       .  A
N2984      C2988   1.344       .  A
N2985      C2986   1.343       .  A
C2986      C2987   1.382   1_655  A
C2986      H2989   1.082       .  S
C2987      C2988   1.387   1_455  A
C2987      C3286   1.486       .  S
C2988      H2990   1.082       .  S
C2991      C2996   1.404       .  A
C2991      C3255   1.486       .  S
C2992      C2993   1.400       .  A
C2992      H2997   1.084       .  S
C2993      C2994   1.401       .  A
C2993      C3272   1.484       .  S
C2994      C2995   1.403       .  A
C2994      H2998   1.084       .  S
C2995      C3129   1.472       .  S
C2996      H2999   1.084       .  S
N3000      N3001   1.322       .  A
N3000      C3004   1.341       .  A
N3000     Cu3008   2.061       .  S
N3001      C3002   1.346       .  A
N3001     Cu3007   2.076       .  S
C3002      C3003   1.384       .  A
C3002      H3005   1.082       .  S
C3003      C3004   1.381       .  A
C3003      C3243   1.483       .  S
C3004      H3006   1.082       .  S
Cu3007     N3010   2.076       .  S
Cu3008     N3018   2.062       .  S
Cu3009     N3011   2.062       .  S
Cu3009     N3017   2.059       .  S
N3010      N3011   1.322       .  A
N3010      C3014   1.346       .  A
N3011      C3012   1.343       .  A
C3012      C3013   1.382       .  A
C3012      H3015   1.082       .  S
C3013      C3014   1.385       .  A
C3013      C3235   1.486       .  S
C3014      H3016   1.082       .  S
N3017      N3018   1.320       .  A
N3017      C3021   1.342       .  A
N3018      C3019   1.345       .  A
C3019      C3020   1.384       .  A
C3019      H3022   1.082       .  S
C3020      C3021   1.380       .  A
C3020      C3225   1.481       .  S
C3021      H3023   1.082       .  S
C3024      H3025   1.084       .  S
N3026      N3027   1.322       .  A
N3026      C3030   1.342       .  A
N3026     Cu3034   2.111       .  S
N3027      C3028   1.348       .  A
N3027     Cu3033   2.037       .  S
C3028      C3029   1.381       .  A
C3028      H3031   1.082   1_545  S
C3029      C3030   1.380       .  A
C3029      C3203   1.482       .  S
C3030      H3032   1.078       .  S
Cu3033     N3036   2.040       .  S
Cu3034     N3044   2.181       .  S
Cu3035     N3037   2.115       .  S
Cu3035     N3043   2.180       .  S
N3036      N3037   1.321       .  A
N3036      C3040   1.344       .  A
N3037      C3038   1.347       .  A
C3038      C3039   1.385       .  A
C3038      H3041   1.079       .  S
C3039      C3040   1.381       .  A
C3039      C3214   1.480       .  S
C3040      H3042   1.082       .  S
N3043      N3044   1.283       .  A
C3045      C3046   1.406   1_545  A
C3045      C3050   1.407       .  A
C3045      C3217   1.494       .  S
C3046      C3047   1.397       .  A
C3046      H3051   1.085       .  S
C3047      C3058   1.476       .  S
C3048      C3049   1.404       .  A
C3048      H3052   1.085       .  S
C3049      C3206   1.485   1_565  S
C3050      H3053   1.083       .  S
C3054      C3059   1.410       .  A
C3054      C3089   1.468       .  S
C3055      C3056   1.403       .  A
C3055      H3060   1.084       .  S
C3057      C3058   1.398   1_545  A
C3057      H3061   1.082       .  S
C3058      C3059   1.399       .  A
C3059      H3062   1.084       .  S
N3063      N3064   1.318       .  A
N3063      C3067   1.339       .  A
N3063     Cu3071   2.055       .  S
N3064      C3065   1.350       .  A
N3064     Cu3070   2.100       .  S
C3065      C3066   1.400       .  A
C3065      H3068   1.080       .  S
C3066      C3067   1.387       .  A
C3066      C3189   1.511       .  S
C3067      H3069   1.080       .  S
Cu3070     N3073   2.102       .  S
Cu3071     N3081   2.057       .  S
Cu3072     N3074   2.075       .  S
Cu3072     N3080   2.074       .  S
N3073      N3074   1.325       .  A
N3073      C3077   1.350       .  A
N3074      C3075   1.343       .  A
C3075      C3076   1.380       .  A
C3075      H3078   1.082       .  S
C3076      C3077   1.387       .  A
C3076      C3175   1.487       .  S
C3077      H3079   1.082       .  S
N3080      N3081   1.320       .  A
N3080      C3084   1.347       .  A
N3081      C3082   1.341       .  A
C3082      C3083   1.380       .  A
C3082      H3085   1.082       .  S
C3083      C3084   1.387       .  A
C3083      C3161   1.484       .  S
C3084      H3086   1.082       .  S
C3087      C3088   1.407       .  A
C3087      C3092   1.412       .  A
C3087      C3192   1.501       .  S
C3088      C3089   1.400       .  A
C3088      H3093   1.084       .  S
C3090      C3091   1.399       .  A
C3090      H3094   1.084       .  S
C3091      C3178   1.485       .  S
C3092      H3095   1.083       .  S
N3096      N3097   1.322   1_565  A
N3096      C3100   1.346       .  A
N3096     Cu3104   2.072       .  S
N3097      C3098   1.343       .  A
N3097     Cu3103   2.075       .  S
C3098      C3099   1.383       .  A
C3098      H3101   1.082       .  S
C3099      C3100   1.386   1_545  A
C3099      C3150   1.488       .  S
C3100      H3102   1.082       .  S
Cu3103     N3106   2.075       .  S
Cu3104     N3114   2.072       .  S
Cu3105     N3107   2.081   1_565  S
Cu3105     N3113   2.080       .  S
N3106      N3107   1.322       .  A
N3106      C3110   1.347       .  A
N3107      C3108   1.345       .  A
C3108      C3109   1.385       .  A
C3108      H3111   1.082       .  S
C3109      C3110   1.383       .  A
C3109      C3136   1.486       .  S
C3110      H3112   1.082       .  S
N3113      N3114   1.323       .  A
N3113      C3117   1.346       .  A
N3114      C3115   1.345       .  A
C3115      C3116   1.380       .  A
C3115      H3118   1.082       .  S
C3116      C3117   1.382       .  A
C3116      C3164   1.479       .  S
C3117      H3119   1.082       .  S
C3120      C3121   1.406       .  A
C3120      C3125   1.409       .  A
C3120      C3133   1.487       .  S
C3121      C3122   1.404       .  A
C3121      H3126   1.084       .  S
C3122      C3131   1.470       .  S
C3123      C3124   1.403       .  A
C3123      H3127   1.084       .  S
C3124      C3147   1.484       .  S
C3125      H3128   1.084       .  S
C3129      C3387   1.405       .  A
C3129      C3130   1.404       .  A
C3130      C3131   1.400       .  A
C3130      H3132   1.084       .  S
C3131      C3388   1.400       .  A
C3133      C3134   1.411       .  A
C3133      C3138   1.411       .  A
C3134      C3135   1.412       .  A
C3134      C3139   1.450       .  S
C3135      C3136   1.414       .  A
C3135      C3142   1.451       .  S
C3136      C3137   1.413       .  A
C3137      C3138   1.412       .  A
C3137      C3140   1.449   1_545  S
C3138      C3141   1.451       .  S
C3139      N3146   1.157       .  T
C3140      N3145   1.157       .  T
C3141      N3143   1.157       .  T
C3142      N3144   1.157       .  T
C3147      C3148   1.411       .  A
C3147      C3152   1.410       .  A
C3148      C3149   1.411       .  A
C3148      C3153   1.451       .  S
C3149      C3150   1.416       .  A
C3149      C3156   1.451       .  S
C3150      C3151   1.415       .  A
C3151      C3152   1.411       .  A
C3151      C3154   1.451   1_545  S
C3152      C3155   1.450       .  S
C3153      N3160   1.157       .  T
C3154      N3159   1.157       .  T
C3155      N3157   1.157       .  T
C3156      N3158   1.157       .  T
C3161      C3162   1.413       .  A
C3161      C3166   1.415       .  A
C3162      C3163   1.411       .  A
C3162      C3167   1.451       .  S
C3163      C3164   1.411       .  A
C3163      C3170   1.450       .  S
C3164      C3165   1.410       .  A
C3165      C3166   1.409       .  A
C3165      C3168   1.451   1_565  S
C3166      C3169   1.452       .  S
C3167      N3174   1.157       .  T
C3168      N3173   1.157       .  T
C3169      N3171   1.157   1_565  T
C3170      N3172   1.157       .  T
C3175      C3176   1.413       .  A
C3175      C3180   1.414       .  A
C3176      C3177   1.414       .  A
C3176      C3181   1.449       .  S
C3177      C3178   1.410       .  A
C3177      C3184   1.450       .  S
C3178      C3179   1.412       .  A
C3179      C3180   1.409       .  A
C3179      C3182   1.452       .  S
C3180      C3183   1.451       .  S
C3181      N3188   1.157       .  T
C3182      N3187   1.157       .  T
C3183      N3185   1.157       .  T
C3184      N3186   1.157       .  T
C3189      C3190   1.420       .  A
C3189      C3194   1.425       .  A
C3190      C3191   1.415       .  A
C3190      C3195   1.450       .  S
C3191      C3192   1.416       .  A
C3191      C3198   1.452       .  S
C3192      C3193   1.412       .  A
C3193      C3194   1.412       .  A
C3193      C3196   1.454       .  S
C3194      C3197   1.451       .  S
C3195      N3202   1.158       .  T
C3196      N3201   1.158       .  T
C3197      N3199   1.158       .  T
C3198      N3200   1.157       .  T
C3203      C3204   1.407       .  A
C3203      C3208   1.413   1_545  A
C3204      C3205   1.397       .  A
C3204      C3209   1.449       .  S
C3205      C3206   1.412       .  A
C3205      C3211   1.449       .  S
C3206      C3207   1.412   1_545  A
C3207      C3208   1.417       .  A
C3207      C3210   1.448       .  S
C3209      N3213   1.155       .  T
C3211      N3212   1.156       .  T
C3214      C3215   1.413       .  A
C3214      C3219   1.406       .  A
C3215      C3216   1.419       .  A
C3216      C3217   1.413       .  A
C3216      C3222   1.448   1_545  S
C3217      C3218   1.411       .  A
C3218      C3219   1.398       .  A
C3218      C3220   1.440       .  S
C3219      C3221   1.452       .  S
C3220      N3224   1.152       .  T
C3221      N3223   1.156       .  T
C3225      C3226   1.416       .  A
C3225      C3230   1.410       .  A
C3226      C3227   1.409       .  A
C3226      C3231   1.451       .  S
C3227      C3228   1.409       .  A
C3227      C3232   1.451       .  S
C3228      C3229   1.412       .  A
C3228      C3283   1.492       .  S
C3229      C3230   1.408       .  A
C3231      N3234   1.157       .  T
C3232      N3233   1.157       .  T
C3235      C3236   1.415       .  A
C3236      C3237   1.410       .  A
C3236      C3239   1.452       .  S
C3237      C3238   1.412       .  A
C3237      C3240   1.452       .  S
C3239      N3242   1.157       .  T
C3240      N3241   1.157       .  T
C3243      C3244   1.412       .  A
C3243      C3248   1.415       .  A
C3244      C3245   1.412       .  A
C3244      C3249   1.450       .  S
C3245      C3246   1.411       .  A
C3246      C3247   1.411       .  A
C3247      C3248   1.405       .  A
C3247      C3250   1.453       .  S
C3248      C3251   1.452       .  S
C3249      N3254   1.157       .  T
C3250      N3253   1.157       .  T
C3251      N3252   1.157       .  T
C3255      C3256   1.413       .  A
C3255      C3260   1.411       .  A
C3256      C3257   1.413       .  A
C3256      C3261   1.450       .  S
C3257      C3258   1.411       .  A
C3257      C3264   1.450       .  S
C3258      C3259   1.413       .  A
C3259      C3260   1.409       .  A
C3259      C3262   1.451       .  S
C3260      C3263   1.452       .  S
C3261      N3268   1.157       .  T
C3262      N3267   1.157       .  T
C3263      N3265   1.157       .  T
C3264      N3266   1.157       .  T
C3269      C3270   1.414       .  A
C3269      C3274   1.418       .  A
C3270      C3271   1.412       .  A
C3270      C3275   1.450       .  S
C3271      C3272   1.411       .  A
C3271      C3278   1.451       .  S
C3272      C3273   1.409       .  A
C3273      C3274   1.410       .  A
C3273      C3276   1.451       .  S
C3274      C3277   1.452       .  S
C3275      N3282   1.157       .  T
C3276      N3281   1.157       .  T
C3277      N3279   1.157       .  T
C3278      N3280   1.157       .  T
C3283      C3284   1.408       .  A
C3283      C3288   1.411       .  A
C3284      C3285   1.407       .  A
C3284      C3289   1.451       .  S
C3285      C3286   1.417       .  A
C3285      C3292   1.451       .  S
C3286      C3287   1.415       .  A
C3287      C3288   1.410       .  A
C3287      C3290   1.451       .  S
C3288      C3291   1.451       .  S
C3289      N3296   1.157       .  T
C3290      N3295   1.157       .  T
C3291      N3293   1.157       .  T
C3292      N3294   1.157   1_455  T
C3297      C3298   1.414       .  A
C3297      C3302   1.412       .  A
C3298      C3299   1.407       .  A
C3298      C3303   1.451       .  S
C3299      C3300   1.415       .  A
C3299      C3306   1.452       .  S
C3300      C3301   1.421       .  A
C3301      C3302   1.416       .  A
C3301      C3304   1.449       .  S
C3302      C3305   1.451       .  S
C3303      N3310   1.157       .  T
C3304      N3309   1.158       .  T
C3305      N3307   1.157       .  T
C3306      N3308   1.158       .  T
C3311      C3312   1.423       .  A
C3311      C3316   1.415       .  A
C3312      C3313   1.411       .  A
C3312      C3317   1.451       .  S
C3313      C3314   1.417       .  A
C3313      C3320   1.453       .  S
C3314      C3315   1.424       .  A
C3315      C3316   1.416       .  A
C3315      C3318   1.449       .  S
C3316      C3319   1.453       .  S
C3317      N3324   1.157       .  T
C3318      N3323   1.158       .  T
C3319      N3321   1.157       .  T
C3320      N3322   1.158       .  T
N3325      N3326   1.345       .  A
N3325      C3329   1.345       .  A
N3326      C3327   1.345       .  A
C3327      C3328   1.391       .  A
C3327      H3330   1.082       .  S
C3328      C3329   1.391       .  A
C3328      C3340   1.538   1_655  S
C3329      H3331   1.082       .  S
C3332      C3336   1.402       .  A
C3333      C3334   1.410       .  A
C3334      C3377   1.404       .  A
C3334      H3337   1.083       .  S
C3335      C3376   1.400   1_554  A
C3335      C3336   1.402       .  A
C3335      C3344   1.472       .  S
C3336      H3338   1.084       .  S
C3339      C3340   1.410   1_655  A
C3339      H3342   1.082       .  S
C3340      C3341   1.410       .  A
C3341      H3343   1.082       .  S
C3344      C3345   1.406       .  A
C3344      C3346   1.404       .  A
C3345      H3347   1.084       .  S
C3346      H3348   1.084       .  S
C3349      N3350   1.157       .  T
C3352      N3354   1.157       .  T
C3355      N3358   1.157       .  T
C3356      N3357   1.157       .  T
C3359      C3360   1.412       .  A
C3359      C3361   1.451       .  S
C3360      C3362   1.450       .  S
C3361      N3364   1.157       .  T
C3362      N3363   1.157       .  T
C3365      N3366   1.157       .  T
N3367      N3368   1.345       .  A
N3367      C3371   1.345   1_655  A
N3368      C3369   1.346   1_655  A
C3369      C3370   1.392       .  A
C3369      H3372   1.082       .  S
C3370      C3371   1.392       .  A
C3370      C3382   1.539       .  S
C3371      H3373   1.082       .  S
C3374      C3378   1.396       .  A
C3375      C3376   1.404       .  A
C3376      H3379   1.084       .  S
C3377      C3378   1.397       .  A
C3377      C3386   1.470       .  S
C3378      H3380   1.085       .  S
C3381      C3382   1.411       .  A
C3381      H3384   1.082       .  S
C3382      C3383   1.411       .  A
C3383      H3385   1.082       .  S
C3386      C3387   1.402       .  A
C3386      C3388   1.401       .  A
C3387      H3389   1.084       .  S
C3388      H3390   1.085       .  S
C3391      N3392   1.157       .  T
C3394      N3396   1.157       .  T
C3397      N3400   1.157       .  T
C3398      N3399   1.157       .  T
C3401      C3402   1.412       .  A
C3401      C3403   1.450       .  S
C3402      C3404   1.450       .  S
C3403      N3406   1.157       .  T
C3404      N3405   1.157       .  T
C3407      N3408   1.157       .  T
