geometry optimzed in LAMMPS
_audit_creation_date              2020-11-30 
_audit_creation_method            'lammps2cif' 
_symmetry_space_group_name_H-M    'P1' 
_symmetry_Int_Tables_number       1 
_symmetry_cell_setting            triclinic 
loop_ 
_symmetry_equiv_pos_as_xyz 
  x,y,z 
_cell_length_a                    27.670965719034452 
_cell_length_b                    27.656479109387767 
_cell_length_c                    27.69371956885071 
_cell_angle_alpha                 83.90296582595589 
_cell_angle_beta                  85.11734010346107 
_cell_angle_gamma                 95.34724899727755 
loop_ 
_atom_site_label 
_atom_site_type_symbol 
_atom_site_fract_x 
_atom_site_fract_y 
_atom_site_fract_z 
_atom_site_charge 
C1          C  0.09519446  0.29582714  0.51513816     0.03050
C2          C  0.14575799  0.29508813  0.00938830    -0.13100
C3          C  0.16552887  0.25081246  0.00661126     0.00550
C4          C  0.13589357  0.20872025  0.00194304    -0.11630
C5          C  0.08591525  0.20678231  0.51335685     0.03040
C6          C  0.06471625  0.25084727  0.51914314    -0.11050
H7          H  0.16938093  0.32753256  0.01395856     0.08640
H8          H  0.15261993  0.17491289  0.99951622     0.06170
H9          H  0.02589276  0.24992219  0.52902311     0.06010
C10         C  0.40395990  0.17567740  0.11338029     0.03050
C11         C  0.35418083  0.17543499  0.10820620    -0.13100
C12         C  0.33295694  0.21908503  0.10491684     0.00550
C13         C  0.35898625  0.26223024  0.11258737    -0.11630
C14         C  0.40935125  0.26520662  0.11292554     0.03040
C15         C  0.43251164  0.22130345  0.11400731    -0.11050
H16         H  0.33332212  0.14227503  0.10076455     0.08640
H17         H  0.34057500  0.29530356  0.11054887     0.06170
H18         H  0.47188128  0.22283933  0.11215326     0.06010
C19         C  0.19036428  0.43669593  0.16036896     0.03050
C20         C  0.19075940  0.43994753  0.21032243    -0.13100
C21         C  0.23465611  0.44149761  0.23141619     0.00550
C22         C  0.27706143  0.43279234  0.20513887    -0.11630
C23         C  0.27962476  0.43564210  0.15461266     0.03040
C24         C  0.23563852  0.43673482  0.13151004    -0.11050
H25         H  0.15796550  0.44741621  0.23143238     0.08640
H26         H  0.31027226  0.43280643  0.22342675     0.06170
H27         H  0.23685125  0.44062916  0.09208702     0.06010
C28         C  0.30743342  0.03684722  0.46888468     0.03050
C29         C  0.26292743  0.03486543  0.99939251    -0.13100
C30         C  0.21846608  0.03899679  0.47788661     0.00550
C31         C  0.21968785  0.04683635  0.42743180    -0.11630
C32         C  0.26118683  0.03952263  0.39874942     0.03040
C33         C  0.30576973  0.03838622  0.41850177    -0.11050
H34         H  0.26264571  0.02744084  0.03861675     0.08640
H35         H  0.18579708  0.04869562  0.41048674     0.06170
H36         H  0.33791152  0.03218688  0.39561841     0.06100
C37         C  0.04997459  0.08213594  0.25573350     0.03050
C38         C  0.04511182  0.05277223  0.30170943    -0.13100
C39         C  0.04925562  0.07534134  0.34510700     0.00550
C40         C  0.05937210  0.12578459  0.34167050    -0.11630
C41         C  0.05748208  0.15425468  0.29771010     0.03040
C42         C  0.05608757  0.13293545  0.25443075    -0.11050
H43         H  0.03580730  0.01364560  0.30377690     0.08640
H44         H  0.06000081  0.14356217  0.37480967     0.06170
H45         H  0.05274721  0.15572484  0.22072605     0.06010
C46         C  0.45236007  0.39029860  0.37589162     0.03050
C47         C  0.45776297  0.34046512  0.37753703    -0.13100
C48         C  0.46036595  0.31841288  0.33475158     0.00550
C49         C  0.45371309  0.34412069  0.29064808    -0.11630
C50         C  0.45325631  0.39457701  0.28640670     0.03040
C51         C  0.45175319  0.41829920  0.32962280    -0.11050
H52         H  0.46503288  0.31996105  0.41132352     0.08640
H53         H  0.45608178  0.32538301  0.25811060     0.06170
H54         H  0.45326239  0.45776037  0.32714955     0.06010
O55         O  0.08023455  0.37854975  0.99336407    -0.80210
O56         O  0.44211943  0.45872711  0.22454664    -0.81760
O57         O  0.10917851  0.41221147  0.14248328    -0.78780
O58         O  0.47370487  0.32621132  0.12363131    -0.77170
O59         O  0.41381151  0.34665424  0.07541883    -0.78960
O60         O  0.14129492  0.49213428  0.12406931    -0.79890
O61         O  0.48983555  0.39890656  0.20522748    -0.81220
O62         O  0.05991974  0.34311873  0.07196341    -0.81510
Eu63       Eu  0.02410394  0.40437927  0.11803134     2.39200
O64         O  0.44529640  0.43111208  0.11946232    -0.89020
O65         O  0.07764874  0.46072476  0.06467435    -0.92620
C66         C  0.07676380  0.34190854  0.02730031     1.02070
C67         C  0.46243936  0.41966445  0.23582119     1.01890
C68         C  0.14448199  0.44706866  0.13959037     1.01830
C69         C  0.43465649  0.31553068  0.10323450     0.99690
H70         H  0.03841373  0.47904088  0.17557718     0.29440
O71         O  0.02608967  0.48237405  0.14399203    -1.01400
H72         H  0.49331290  0.37666040  0.02699347     0.29470
O73         O  0.49639552  0.40805754  0.03920963    -1.03940
O74         O  0.42234858  0.09445383  0.13842443    -0.81170
O75         O  0.05765920  0.01194899  0.40778231    -0.80710
O76         O  0.07198238  0.06651540  0.17406158    -0.79150
O77         O  0.34048659  0.42722181  0.09025955    -0.82490
O78         O  0.42674214  0.40938284  0.45590368    -0.80340
O79         O  0.15724509  0.04691623  0.04176562    -0.78990
O80         O  0.02234623  0.14497452  0.00577043    -0.80510
O81         O  0.38956526  0.05963042  0.48461938    -0.82430
O82         O  0.08204313  0.12728782  0.05545103    -0.79170
O83         O  0.35621119  0.48027458  0.00433801    -0.81850
O84         O  0.49349389  0.04528697  0.20819111    -0.77580
O85         O  0.13931683  0.49749658  0.48301086    -0.77620
O86         O  0.50631765  0.42823567  0.42419136    -0.77260
O87         O  0.36029881  0.47394173  0.15060428    -0.80760
O88         O  0.44056308  0.12777678  0.05885844    -0.80180
O89         O  0.50815358  0.07129407  0.42438780    -0.78510
Eu90       Eu  0.44727195  0.00959333  0.14634707     2.39770
Eu91       Eu  0.05248499  0.46221389  0.48625720     2.39570
Eu92       Eu  0.07893269  0.03967707  0.09063627     2.38400
Eu93       Eu  0.41834886  0.43407559  0.04041372     2.39880
Eu94       Eu  0.47367474  0.06640282  0.01166177     2.39790
O95         O  0.47336755  0.48835254  0.98661490    -0.92930
O96         O  0.50038082  0.06414364  0.09081694    -0.91820
C97         C  0.42511444  0.13022937  0.10363269     1.02240
C98         C  0.03679647  0.05029335  0.39516195     1.00960
C99         C  0.03809680  0.06263624  0.21005760     1.00350
C100        C  0.32961035  0.44653379  0.12945110     1.02370
C101        C  0.46166798  0.41221028  0.42097816     1.01280
C102        C  0.16907298  0.02632580  0.00363369     1.00130
C103        C  0.06070539  0.15704078  0.02657270     1.00190
C104        C  0.35377309  0.02524567  0.48785682     1.02800
H105        H  0.07534631  0.06400724  0.48884589     0.30180
O106        O  0.05317466  0.04138489  0.01121433    -1.05090
H107        H  0.38918945  0.02440355  0.07123913     0.32230
O108        O  0.42078013  0.01239475  0.06811673    -1.07650
C109        C  0.06081636  0.24137340  0.31029189    -0.21380
C110        C  0.03391539  0.19831110  0.30217518    -0.09430
C111        C  0.48263911  0.19343825  0.30909230     0.29430
C112        C  0.45837377  0.23182506  0.32355505    -0.21390
C113        C  0.48512137  0.27495066  0.33149689    -0.09440
C114        C  0.03641323  0.28007718  0.32431091     0.29440
F115        F  0.06246664  0.32323253  0.32873656    -0.19960
H116        H  0.10031295  0.24465325  0.30625907     0.17800
H117        H  0.41886618  0.22847690  0.32744338     0.17810
F118        F  0.45634341  0.15067020  0.30373534    -0.19950
C119        C  0.21507652  0.44804573  0.31871057    -0.21380
C120        C  0.24015165  0.46704375  0.27410941    -0.09430
C121        C  0.27153555  0.01090250  0.26986721     0.29430
C122        C  0.27846169  0.03488636  0.31059167    -0.21390
C123        C  0.25365370  0.01567842  0.35530588    -0.09440
C124        C  0.22209089  0.47191816  0.35943350     0.29440
F125        F  0.19911639  0.45157975  0.40316437    -0.19960
H126        H  0.19110344  0.41432066  0.32208944     0.17800
H127        H  0.30282669  0.06833645  0.30732314     0.17810
F128        F  0.29524991  0.03055927  0.22623449    -0.19950
C129        C  0.20369333  0.21580333  0.07687033    -0.21380
C130        C  0.20930763  0.24288852  0.03033197    -0.09430
C131        C  0.25546962  0.26031479  0.00783553     0.29430
C132        C  0.29600998  0.25051435  0.03203249    -0.21390
C133        C  0.29021969  0.22374113  0.07872749    -0.09440
C134        C  0.24411610  0.20595873  0.10094382     0.29440
F135        F  0.23832522  0.18073883  0.14620444    -0.19960
H136        H  0.16773002  0.20251712  0.09453295     0.17800
H137        H  0.33201105  0.26449180  0.01493662     0.17810
F138        F  0.26109732  0.28639004  0.46299088    -0.19950
C139        C  0.09519445  0.29582712  0.01513817     0.03050
C140        C  0.14575801  0.29508814  0.50938832    -0.13100
C141        C  0.16552889  0.25081248  0.50661130     0.00550
C142        C  0.13589360  0.20872026  0.50194307    -0.11630
C143        C  0.08591522  0.20678230  0.01335685     0.03040
C144        C  0.06471623  0.25084726  0.01914316    -0.11050
H145        H  0.16938094  0.32753258  0.51395859     0.08640
H146        H  0.15261997  0.17491291  0.49951627     0.06170
H147        H  0.02589274  0.24992218  0.02902315     0.06010
C148        C  0.40395990  0.17567742  0.61338030     0.03050
C149        C  0.35418083  0.17543501  0.60820626    -0.13100
C150        C  0.33295694  0.21908505  0.60491693     0.00550
C151        C  0.35898625  0.26223025  0.61258747    -0.11630
C152        C  0.40935126  0.26520662  0.61292557     0.03040
C153        C  0.43251165  0.22130346  0.61400730    -0.11050
H154        H  0.33332210  0.14227505  0.60076462     0.08640
H155        H  0.34057502  0.29530357  0.61054899     0.06170
H156        H  0.47188129  0.22283934  0.61215322     0.06010
C157        C  0.19036430  0.43669595  0.66036896     0.03050
C158        C  0.19075941  0.43994755  0.71032243    -0.13100
C159        C  0.23465612  0.44149764  0.73141618     0.00550
C160        C  0.27706144  0.43279236  0.70513887    -0.11630
C161        C  0.27962477  0.43564212  0.65461266     0.03040
C162        C  0.23563853  0.43673483  0.63151004    -0.11050
H163        H  0.15796552  0.44741624  0.73143237     0.08640
H164        H  0.31027227  0.43280646  0.72342675     0.06170
H165        H  0.23685127  0.44062916  0.59208701     0.06010
C166        C  0.30743342  0.03684721  0.96888469     0.03050
C167        C  0.26292744  0.03486545  0.49939250    -0.13100
C168        C  0.21846607  0.03899678  0.97788662     0.00550
C169        C  0.21968785  0.04683634  0.92743181    -0.11630
C170        C  0.26118682  0.03952263  0.89874943     0.03040
C171        C  0.30576972  0.03838621  0.91850178    -0.11050
H172        H  0.26264572  0.02744087  0.53861674     0.08640
H173        H  0.18579708  0.04869561  0.91048675     0.06170
H174        H  0.33791151  0.03218688  0.89561842     0.06100
C175        C  0.04997459  0.08213594  0.75573350     0.03050
C176        C  0.04511182  0.05277223  0.80170943    -0.13100
C177        C  0.04925562  0.07534133  0.84510701     0.00550
C178        C  0.05937209  0.12578459  0.84167051    -0.11630
C179        C  0.05748208  0.15425468  0.79771011     0.03040
C180        C  0.05608758  0.13293545  0.75443076    -0.11050
H181        H  0.03580730  0.01364560  0.80377690     0.08640
H182        H  0.06000079  0.14356216  0.87480968     0.06170
H183        H  0.05274723  0.15572484  0.72072606     0.06010
C184        C  0.45236007  0.39029861  0.87589162     0.03050
C185        C  0.45776296  0.34046512  0.87753703    -0.13100
C186        C  0.46036595  0.31841289  0.83475158     0.00550
C187        C  0.45371310  0.34412070  0.79064808    -0.11630
C188        C  0.45325632  0.39457702  0.78640669     0.03040
C189        C  0.45175320  0.41829921  0.82962279    -0.11050
H190        H  0.46503286  0.31996106  0.91132352     0.08640
H191        H  0.45608179  0.32538302  0.75811060     0.06170
H192        H  0.45326240  0.45776038  0.82714955     0.06010
O193        O  0.08023455  0.37854975  0.49336406    -0.80210
O194        O  0.44211944  0.45872712  0.72454663    -0.81760
O195        O  0.10917853  0.41221148  0.64248327    -0.78780
O196        O  0.47370489  0.32621133  0.62363132    -0.77170
O197        O  0.41381152  0.34665424  0.57541885    -0.78960
O198        O  0.14129493  0.49213429  0.62406930    -0.79890
O199        O  0.48983556  0.39890657  0.70522748    -0.81220
O200        O  0.05991976  0.34311875  0.57196340    -0.81510
Eu201      Eu  0.02410396  0.40437928  0.61803133     2.39200
O202        O  0.44529642  0.43111209  0.61946232    -0.89020
O203        O  0.07764876  0.46072477  0.56467434    -0.92620
C204        C  0.07676381  0.34190855  0.52730030     1.02070
C205        C  0.46243938  0.41966446  0.73582119     1.01890
C206        C  0.14448201  0.44706867  0.63959036     1.01830
C207        C  0.43465650  0.31553069  0.60323452     0.99690
H208        H  0.03841374  0.47904089  0.67557717     0.29440
O209        O  0.02608969  0.48237406  0.64399202    -1.01400
H210        H  0.49331291  0.37666040  0.52699347     0.29470
O211        O  0.49639553  0.40805755  0.53920962    -1.03940
O212        O  0.42234858  0.09445384  0.63842443    -0.81170
O213        O  0.05765919  0.01194898  0.90778232    -0.80710
O214        O  0.07198239  0.06651541  0.67406158    -0.79150
O215        O  0.34048660  0.42722181  0.59025955    -0.82490
O216        O  0.42674213  0.40938285  0.95590367    -0.80340
O217        O  0.15724510  0.04691624  0.54176562    -0.78990
O218        O  0.02234626  0.14497454  0.50577042    -0.80510
O219        O  0.38956525  0.05963040  0.98461939    -0.82430
O220        O  0.08204315  0.12728783  0.55545103    -0.79170
O221        O  0.35621120  0.48027457  0.50433801    -0.81850
O222        O  0.49349389  0.04528698  0.70819111    -0.77580
O223        O  0.13931682  0.49749657  0.98301087    -0.77620
O224        O  0.50631765  0.42823568  0.92419136    -0.77260
O225        O  0.36029883  0.47394174  0.65060427    -0.80760
O226        O  0.44056308  0.12777680  0.55885844    -0.80180
O227        O  0.50815357  0.07129406  0.92438781    -0.78510
Eu228      Eu  0.44727196  0.00959334  0.64634707     2.39770
Eu229      Eu  0.05248498  0.46221389  0.98625721     2.39570
Eu230      Eu  0.07893270  0.03967709  0.59063627     2.38400
Eu231      Eu  0.41834887  0.43407558  0.54041372     2.39880
Eu232      Eu  0.47367475  0.06640284  0.51166177     2.39790
O233        O  0.47336755  0.48835254  0.48661490    -0.92930
O234        O  0.50038083  0.06414366  0.59081694    -0.91820
C235        C  0.42511444  0.13022938  0.60363269     1.02240
C236        C  0.03679646  0.05029333  0.89516196     1.00960
C237        C  0.03809680  0.06263624  0.71005760     1.00350
C238        C  0.32961036  0.44653380  0.62945109     1.02370
C239        C  0.46166797  0.41221028  0.92097816     1.01280
C240        C  0.16907299  0.02632581  0.50363369     1.00130
C241        C  0.06070541  0.15704079  0.52657269     1.00190
C242        C  0.35377308  0.02524565  0.98785683     1.02800
H243        H  0.07534630  0.06400723  0.98884589     0.30180
O244        O  0.05317466  0.04138491  0.51121432    -1.05090
H245        H  0.38918946  0.02440356  0.57123912     0.32230
O246        O  0.42078014  0.01239477  0.56811673    -1.07650
C247        C  0.06081637  0.24137338  0.81029196    -0.21380
C248        C  0.03391540  0.19831111  0.80217519    -0.09430
C249        C  0.48263911  0.19343827  0.80909223     0.29430
C250        C  0.45837376  0.23182508  0.82355499    -0.21390
C251        C  0.48512136  0.27495066  0.83149690    -0.09440
C252        C  0.03641323  0.28007716  0.82431099     0.29440
F253        F  0.06246664  0.32323249  0.82873670    -0.19960
H254        H  0.10031296  0.24465322  0.80625920     0.17800
H255        H  0.41886618  0.22847694  0.82744327     0.17810
F256        F  0.45634341  0.15067025  0.80373522    -0.19950
C257        C  0.21507652  0.44804576  0.81871056    -0.21380
C258        C  0.24015165  0.46704378  0.77410941    -0.09430
C259        C  0.27153556  0.01090251  0.76986721     0.29430
C260        C  0.27846169  0.03488637  0.81059167    -0.21390
C261        C  0.25365370  0.01567842  0.85530588    -0.09440
C262        C  0.22209088  0.47191819  0.85943350     0.29440
F263        F  0.19911638  0.45157977  0.90316436    -0.19960
H264        H  0.19110343  0.41432068  0.82208943     0.17800
H265        H  0.30282669  0.06833646  0.80732315     0.17810
F266        F  0.29524992  0.03055929  0.72623450    -0.19950
C267        C  0.20369333  0.21580337  0.57687040    -0.21380
C268        C  0.20930765  0.24288855  0.53033203    -0.09430
C269        C  0.25546964  0.26031482  0.50783560     0.29430
C270        C  0.29600999  0.25051438  0.53203258    -0.21390
C271        C  0.29021968  0.22374116  0.57872758    -0.09440
C272        C  0.24411609  0.20595878  0.60094391     0.29440
F273        F  0.23832519  0.18073889  0.64620454    -0.19960
H274        H  0.16773001  0.20251717  0.59453302     0.17800
H275        H  0.33201107  0.26449182  0.51493672     0.17810
F276        F  0.26109728  0.28639002  0.96299081    -0.19950
C277        C  0.09519448  0.79582713  0.51513815     0.03050
C278        C  0.14575802  0.79508812  0.00938831    -0.13100
C279        C  0.16552890  0.75081246  0.00661129     0.00550
C280        C  0.13589360  0.70872024  0.00194307    -0.11630
C281        C  0.08591525  0.70678231  0.51335684     0.03040
C282        C  0.06471625  0.75084727  0.51914314    -0.11050
H283        H  0.16938096  0.82753256  0.01395857     0.08640
H284        H  0.15261996  0.67491288  0.99951628     0.06170
H285        H  0.02589277  0.74992220  0.52902312     0.06010
C286        C  0.40395989  0.67567741  0.11338032     0.03050
C287        C  0.35418082  0.67543499  0.10820628    -0.13100
C288        C  0.33295693  0.71908504  0.10491695     0.00550
C289        C  0.35898624  0.76223024  0.11258747    -0.11630
C290        C  0.40935125  0.76520662  0.11292558     0.03040
C291        C  0.43251164  0.72130345  0.11400731    -0.11050
H292        H  0.33332209  0.64227504  0.10076465     0.08640
H293        H  0.34057501  0.79530357  0.11054899     0.06170
H294        H  0.47188128  0.72283933  0.11215323     0.06010
C295        C  0.19036430  0.93669593  0.16036895     0.03050
C296        C  0.19075941  0.93994752  0.21032243    -0.13100
C297        C  0.23465612  0.94149759  0.23141618     0.00550
C298        C  0.27706144  0.93279232  0.20513887    -0.11630
C299        C  0.27962477  0.93564209  0.15461266     0.03040
C300        C  0.23563853  0.93673482  0.13151003    -0.11050
H301        H  0.15796552  0.94741621  0.23143237     0.08640
H302        H  0.31027227  0.93280641  0.22342675     0.06170
H303        H  0.23685127  0.94062916  0.09208701     0.06010
C304        C  0.30743341  0.53684722  0.46888469     0.03050
C305        C  0.26292742  0.53486544  0.99939253    -0.13100
C306        C  0.21846607  0.53899679  0.47788662     0.00550
C307        C  0.21968784  0.54683634  0.42743182    -0.11630
C308        C  0.26118682  0.53952263  0.39874943     0.03040
C309        C  0.30576972  0.53838622  0.41850178    -0.11050
H310        H  0.26264570  0.52744086  0.03861677     0.08640
H311        H  0.18579707  0.54869561  0.41048676     0.06170
H312        H  0.33791151  0.53218689  0.39561842     0.06100
C313        C  0.04997458  0.58213594  0.25573352     0.03050
C314        C  0.04511180  0.55277223  0.30170945    -0.13100
C315        C  0.04925562  0.57534134  0.34510702     0.00550
C316        C  0.05937213  0.62578459  0.34167052    -0.11630
C317        C  0.05748211  0.65425468  0.29771011     0.03040
C318        C  0.05608760  0.63293545  0.25443077    -0.11050
H319        H  0.03580725  0.51364560  0.30377692     0.08640
H320        H  0.06000084  0.64356216  0.37480969     0.06170
H321        H  0.05274725  0.65572484  0.22072607     0.06010
C322        C  0.45236007  0.89029861  0.37589161     0.03050
C323        C  0.45776295  0.84046512  0.37753703    -0.13100
C324        C  0.46036593  0.81841288  0.33475158     0.00550
C325        C  0.45371309  0.84412069  0.29064808    -0.11630
C326        C  0.45325632  0.89457701  0.28640669     0.03040
C327        C  0.45175320  0.91829921  0.32962279    -0.11050
H328        H  0.46503285  0.81996105  0.41132352     0.08640
H329        H  0.45608177  0.82538301  0.25811060     0.06170
H330        H  0.45326242  0.95776037  0.32714954     0.06010
O331        O  0.08023457  0.87854974  0.99336405    -0.80210
O332        O  0.44211944  0.95872711  0.22454663    -0.81760
O333        O  0.10917853  0.91221147  0.14248327    -0.78780
O334        O  0.47370488  0.82621132  0.12363132    -0.77170
O335        O  0.41381151  0.84665423  0.07541885    -0.78960
O336        O  0.14129494  0.99213428  0.12406930    -0.79890
O337        O  0.48983556  0.89890656  0.20522748    -0.81220
O338        O  0.05991977  0.84311874  0.07196339    -0.81510
Eu339      Eu  0.02410397  0.90437927  0.11803132     2.39200
O340        O  0.44529641  0.93111208  0.11946232    -0.89020
O341        O  0.07764876  0.96072475  0.06467433    -0.92620
C342        C  0.07676383  0.84190853  0.02730029     1.02070
C343        C  0.46243938  0.91966445  0.23582119     1.01890
C344        C  0.14448201  0.94706866  0.13959036     1.01830
C345        C  0.43465649  0.81553068  0.10323452     0.99690
H346        H  0.03841375  0.97904088  0.17557716     0.29440
O347        O  0.02608969  0.98237404  0.14399201    -1.01400
H348        H  0.49331291  0.87666039  0.02699347     0.29470
O349        O  0.49639553  0.90805753  0.03920962    -1.03940
O350        O  0.42234857  0.59445382  0.13842444    -0.81170
O351        O  0.05765918  0.51194899  0.40778233    -0.80710
O352        O  0.07198237  0.56651541  0.17406160    -0.79150
O353        O  0.34048660  0.92722180  0.09025955    -0.82490
O354        O  0.42674215  0.90938285  0.45590367    -0.80340
O355        O  0.15724507  0.54691623  0.04176564    -0.78990
O356        O  0.02234624  0.64497454  0.00577044    -0.80510
O357        O  0.38956525  0.55963042  0.48461939    -0.82430
O358        O  0.08204314  0.62728782  0.05545104    -0.79170
O359        O  0.35621120  0.98027456  0.00433801    -0.81850
O360        O  0.49349388  0.54528697  0.20819112    -0.77580
O361        O  0.13931684  0.99749658  0.48301085    -0.77620
O362        O  0.50631766  0.92823568  0.42419135    -0.77260
O363        O  0.36029883  0.97394172  0.15060427    -0.80760
O364        O  0.44056308  0.62777679  0.05885845    -0.80180
O365        O  0.50815357  0.57129407  0.42438781    -0.78510
Eu366      Eu  0.44727194  0.50959333  0.14634708     2.39770
Eu367      Eu  0.05248501  0.96221389  0.48625719     2.39570
Eu368      Eu  0.07893267  0.53967708  0.09063629     2.38400
Eu369      Eu  0.41834887  0.93407557  0.04041372     2.39880
Eu370      Eu  0.47367474  0.56640283  0.01166178     2.39790
O371        O  0.47336755  0.98835253  0.98661490    -0.92930
O372        O  0.50038081  0.56414365  0.09081695    -0.91820
C373        C  0.42511443  0.63022937  0.10363271     1.02240
C374        C  0.03679646  0.55029335  0.39516197     1.00960
C375        C  0.03809678  0.56263624  0.21005761     1.00350
C376        C  0.32961036  0.94653378  0.12945109     1.02370
C377        C  0.46166798  0.91221028  0.42097815     1.01280
C378        C  0.16907297  0.52632580  0.00363371     1.00130
C379        C  0.06070540  0.65704079  0.02657270     1.00190
C380        C  0.35377308  0.52524566  0.48785683     1.02800
H381        H  0.07534630  0.56400725  0.48884590     0.30180
O382        O  0.05317464  0.54138491  0.01121435    -1.05090
H383        H  0.38918945  0.52440356  0.07123913     0.32230
O384        O  0.42078013  0.51239476  0.06811674    -1.07650
C385        C  0.06081639  0.74137340  0.31029191    -0.21380
C386        C  0.03391542  0.69831110  0.30217520    -0.09430
C387        C  0.48263910  0.69343825  0.30909230     0.29430
C388        C  0.45837375  0.73182506  0.32355505    -0.21390
C389        C  0.48512135  0.77495066  0.33149690    -0.09440
C390        C  0.03641325  0.78007718  0.32431092     0.29440
F391        F  0.06246666  0.82323253  0.32873657    -0.19960
H392        H  0.10031298  0.74465325  0.30625910     0.17800
H393        H  0.41886617  0.72847690  0.32744337     0.17810
F394        F  0.45634340  0.65067020  0.30373534    -0.19950
C395        C  0.21507652  0.94804573  0.31871056    -0.21380
C396        C  0.24015166  0.96704374  0.27410941    -0.09430
C397        C  0.27153553  0.51090251  0.26986722     0.29430
C398        C  0.27846167  0.53488637  0.31059167    -0.21390
C399        C  0.25365369  0.51567842  0.35530589    -0.09440
C400        C  0.22209089  0.97191817  0.35943349     0.29440
F401        F  0.19911638  0.95157976  0.40316436    -0.19960
H402        H  0.19110343  0.91432066  0.32208943     0.17800
H403        H  0.30282667  0.56833647  0.30732315     0.17810
F404        F  0.29524988  0.53055929  0.22623450    -0.19950
C405        C  0.20369332  0.71580336  0.07687040    -0.21380
C406        C  0.20930765  0.74288852  0.03033202    -0.09430
C407        C  0.25546965  0.76031478  0.00783560     0.29430
C408        C  0.29600999  0.75051435  0.03203259    -0.21390
C409        C  0.29021967  0.72374115  0.07872760    -0.09440
C410        C  0.24411608  0.70595877  0.10094392     0.29440
F411        F  0.23832518  0.68073889  0.14620455    -0.19960
H412        H  0.16773000  0.70251717  0.09453302     0.17800
H413        H  0.33201107  0.76449178  0.01493673     0.17810
F414        F  0.26109732  0.78638999  0.46299081    -0.19950
C415        C  0.09519448  0.79582712  0.01513815     0.03050
C416        C  0.14575802  0.79508813  0.50938828    -0.13100
C417        C  0.16552889  0.75081247  0.50661125     0.00550
C418        C  0.13589359  0.70872025  0.50194304    -0.11630
C419        C  0.08591525  0.70678230  0.01335685     0.03040
C420        C  0.06471626  0.75084726  0.01914313    -0.11050
H421        H  0.16938096  0.82753257  0.51395854     0.08640
H422        H  0.15261996  0.67491290  0.49951624     0.06170
H423        H  0.02589277  0.74992219  0.02902311     0.06010
C424        C  0.40395991  0.67567742  0.61338030     0.03050
C425        C  0.35418084  0.67543500  0.60820622    -0.13100
C426        C  0.33295695  0.71908505  0.60491687     0.00550
C427        C  0.35898626  0.76223025  0.61258740    -0.11630
C428        C  0.40935126  0.76520663  0.61292555     0.03040
C429        C  0.43251165  0.72130347  0.61400730    -0.11050
H430        H  0.33332212  0.64227505  0.60076458     0.08640
H431        H  0.34057502  0.79530357  0.61054891     0.06170
H432        H  0.47188129  0.72283934  0.61215324     0.06010
C433        C  0.19036431  0.93669594  0.66036895     0.03050
C434        C  0.19075942  0.93994754  0.71032242    -0.13100
C435        C  0.23465613  0.94149761  0.73141618     0.00550
C436        C  0.27706145  0.93279234  0.70513886    -0.11630
C437        C  0.27962478  0.93564211  0.65461265     0.03040
C438        C  0.23563854  0.93673483  0.63151003    -0.11050
H439        H  0.15796553  0.94741622  0.73143236     0.08640
H440        H  0.31027228  0.93280643  0.72342674     0.06170
H441        H  0.23685128  0.94062917  0.59208700     0.06010
C442        C  0.30743341  0.53684723  0.96888470     0.03050
C443        C  0.26292743  0.53486544  0.49939252    -0.13100
C444        C  0.21846606  0.53899679  0.97788663     0.00550
C445        C  0.21968783  0.54683635  0.92743183    -0.11630
C446        C  0.26118681  0.53952265  0.89874944     0.03040
C447        C  0.30576971  0.53838624  0.91850179    -0.11050
H448        H  0.26264571  0.52744086  0.53861676     0.08640
H449        H  0.18579706  0.54869562  0.91048677     0.06170
H450        H  0.33791150  0.53218691  0.89561843     0.06100
C451        C  0.04997458  0.58213594  0.75573352     0.03050
C452        C  0.04511180  0.55277223  0.80170945    -0.13100
C453        C  0.04925560  0.57534134  0.84510703     0.00550
C454        C  0.05937211  0.62578459  0.84167052    -0.11630
C455        C  0.05748211  0.65425468  0.79771011     0.03040
C456        C  0.05608761  0.63293544  0.75443077    -0.11050
H457        H  0.03580725  0.51364560  0.80377692     0.08640
H458        H  0.06000081  0.64356216  0.87480969     0.06170
H459        H  0.05274727  0.65572484  0.72072607     0.06010
C460        C  0.45236007  0.89029861  0.87589161     0.03050
C461        C  0.45776295  0.84046512  0.87753702    -0.13100
C462        C  0.46036593  0.81841288  0.83475157     0.00550
C463        C  0.45371309  0.84412070  0.79064807    -0.11630
C464        C  0.45325632  0.89457702  0.78640669     0.03040
C465        C  0.45175320  0.91829921  0.82962279    -0.11050
H466        H  0.46503284  0.81996105  0.91132352     0.08640
H467        H  0.45608178  0.82538302  0.75811059     0.06170
H468        H  0.45326241  0.95776038  0.82714954     0.06010
O469        O  0.08023457  0.87854975  0.49336404    -0.80210
O470        O  0.44211945  0.95872712  0.72454663    -0.81760
O471        O  0.10917854  0.91221148  0.64248326    -0.78780
O472        O  0.47370489  0.82621133  0.62363131    -0.77170
O473        O  0.41381153  0.84665425  0.57541883    -0.78960
O474        O  0.14129495  0.99213429  0.62406929    -0.79890
O475        O  0.48983557  0.89890657  0.70522747    -0.81220
O476        O  0.05991978  0.84311875  0.57196339    -0.81510
Eu477      Eu  0.02410397  0.90437928  0.61803132     2.39200
O478        O  0.44529642  0.93111209  0.61946231    -0.89020
O479        O  0.07764877  0.96072476  0.56467433    -0.92620
C480        C  0.07676383  0.84190855  0.52730028     1.02070
C481        C  0.46243938  0.91966446  0.73582118     1.01890
C482        C  0.14448202  0.94706867  0.63959035     1.01830
C483        C  0.43465650  0.81553069  0.60323450     0.99690
H484        H  0.03841376  0.97904089  0.67557716     0.29440
O485        O  0.02608970  0.98237406  0.64399201    -1.01400
H486        H  0.49331292  0.87666041  0.52699346     0.29470
O487        O  0.49639554  0.90805755  0.53920962    -1.03940
O488        O  0.42234859  0.59445384  0.63842443    -0.81170
O489        O  0.05765917  0.51194899  0.90778234    -0.80710
O490        O  0.07198238  0.56651541  0.67406159    -0.79150
O491        O  0.34048661  0.92722181  0.59025955    -0.82490
O492        O  0.42674214  0.90938284  0.95590367    -0.80340
O493        O  0.15724508  0.54691624  0.54176563    -0.78990
O494        O  0.02234624  0.64497454  0.50577043    -0.80510
O495        O  0.38956525  0.55963042  0.98461940    -0.82430
O496        O  0.08204314  0.62728783  0.55545103    -0.79170
O497        O  0.35621121  0.98027458  0.50433800    -0.81850
O498        O  0.49349389  0.54528697  0.70819112    -0.77580
O499        O  0.13931684  0.99749656  0.98301085    -0.77620
O500        O  0.50631765  0.92823567  0.92419135    -0.77260
O501        O  0.36029883  0.97394173  0.65060427    -0.80760
O502        O  0.44056309  0.62777679  0.55885844    -0.80180
O503        O  0.50815356  0.57129406  0.92438781    -0.78510
Eu504      Eu  0.44727195  0.50959334  0.64634707     2.39770
Eu505      Eu  0.05248500  0.96221388  0.98625719     2.39570
Eu506      Eu  0.07893268  0.53967709  0.59063628     2.38400
Eu507      Eu  0.41834887  0.93407559  0.54041371     2.39880
Eu508      Eu  0.47367475  0.56640283  0.51166177     2.39790
O509        O  0.47336756  0.98835254  0.48661489    -0.92930
O510        O  0.50038082  0.56414366  0.59081694    -0.91820
C511        C  0.42511444  0.63022938  0.60363270     1.02240
C512        C  0.03679644  0.55029335  0.89516198     1.00960
C513        C  0.03809679  0.56263624  0.71005761     1.00350
C514        C  0.32961037  0.94653379  0.62945109     1.02370
C515        C  0.46166797  0.91221027  0.92097815     1.01280
C516        C  0.16907298  0.52632581  0.50363370     1.00130
C517        C  0.06070541  0.65704080  0.52657270     1.00190
C518        C  0.35377308  0.52524567  0.98785684     1.02800
H519        H  0.07534629  0.56400724  0.98884591     0.30180
O520        O  0.05317465  0.54138491  0.51121434    -1.05090
H521        H  0.38918945  0.52440356  0.57123913     0.32230
O522        O  0.42078014  0.51239476  0.56811673    -1.07650
C523        C  0.06081639  0.74137338  0.81029197    -0.21380
C524        C  0.03391543  0.69831110  0.80217519    -0.09430
C525        C  0.48263910  0.69343827  0.80909221     0.29430
C526        C  0.45837375  0.73182508  0.82355497    -0.21390
C527        C  0.48512134  0.77495065  0.83149689    -0.09440
C528        C  0.03641325  0.78007716  0.82431099     0.29440
F529        F  0.06246665  0.82323249  0.82873671    -0.19960
H530        H  0.10031298  0.74465322  0.80625921     0.17800
H531        H  0.41886616  0.72847693  0.82744324     0.17810
F532        F  0.45634340  0.65067025  0.80373519    -0.19950
C533        C  0.21507653  0.94804574  0.81871056    -0.21380
C534        C  0.24015166  0.96704375  0.77410940    -0.09430
C535        C  0.27153554  0.51090253  0.76986722     0.29430
C536        C  0.27846167  0.53488639  0.81059168    -0.21390
C537        C  0.25365369  0.51567844  0.85530589    -0.09440
C538        C  0.22209089  0.97191817  0.85943349     0.29440
F539        F  0.19911638  0.95157975  0.90316435    -0.19960
H540        H  0.19110344  0.91432067  0.82208942     0.17800
H541        H  0.30282668  0.56833649  0.80732316     0.17810
F542        F  0.29524991  0.53055931  0.72623451    -0.19950
C543        C  0.20369334  0.71580336  0.57687035    -0.21380
C544        C  0.20930765  0.74288853  0.53033197    -0.09430
C545        C  0.25546965  0.76031478  0.50783553     0.29430
C546        C  0.29601000  0.75051435  0.53203251    -0.21390
C547        C  0.29021969  0.72374115  0.57872752    -0.09440
C548        C  0.24411610  0.70595877  0.60094385     0.29440
F549        F  0.23832521  0.68073889  0.64620449    -0.19960
H550        H  0.16773003  0.70251717  0.59453297     0.17800
H551        H  0.33201108  0.76449178  0.51493664     0.17810
F552        F  0.26109733  0.78638999  0.96299087    -0.19950
C553        C  0.59519447  0.29582711  0.51513816     0.03050
C554        C  0.64575800  0.29508811  0.00938829    -0.13100
C555        C  0.66552887  0.25081244  0.00661125     0.00550
C556        C  0.63589358  0.20872023  0.00194304    -0.11630
C557        C  0.58591526  0.20678229  0.51335685     0.03040
C558        C  0.56471626  0.25084725  0.51914314    -0.11050
H559        H  0.66938094  0.32753255  0.01395855     0.08640
H560        H  0.65261994  0.17491287  0.99951623     0.06170
H561        H  0.52589277  0.24992217  0.52902312     0.06010
C562        C  0.90395990  0.17567742  0.11338029     0.03050
C563        C  0.85418083  0.17543501  0.10820621    -0.13100
C564        C  0.83295694  0.21908505  0.10491686     0.00550
C565        C  0.85898625  0.26223025  0.11258739    -0.11630
C566        C  0.90935125  0.26520663  0.11292554     0.03040
C567        C  0.93251165  0.22130347  0.11400730    -0.11050
H568        H  0.83332212  0.14227505  0.10076457     0.08640
H569        H  0.84057501  0.29530357  0.11054889     0.06170
H570        H  0.97188128  0.22283935  0.11215324     0.06010
C571        C  0.69036428  0.43669590  0.16036896     0.03050
C572        C  0.69075940  0.43994751  0.21032244    -0.13100
C573        C  0.73465611  0.44149760  0.23141619     0.00550
C574        C  0.77706143  0.43279233  0.20513888    -0.11630
C575        C  0.77962476  0.43564209  0.15461267     0.03040
C576        C  0.73563852  0.43673480  0.13151005    -0.11050
H577        H  0.65796550  0.44741619  0.23143238     0.08640
H578        H  0.81027226  0.43280643  0.22342676     0.06170
H579        H  0.73685125  0.44062914  0.09208702     0.06010
C580        C  0.80743342  0.03684722  0.46888468     0.03050
C581        C  0.76292743  0.03486542  0.99939251    -0.13100
C582        C  0.71846608  0.03899678  0.47788662     0.00550
C583        C  0.71968784  0.04683634  0.42743181    -0.11630
C584        C  0.76118682  0.03952263  0.39874942     0.03040
C585        C  0.80576972  0.03838622  0.41850177    -0.11050
H586        H  0.76264571  0.02744083  0.03861675     0.08640
H587        H  0.68579707  0.04869561  0.41048675     0.06170
H588        H  0.83791151  0.03218689  0.39561840     0.06100
C589        C  0.54997460  0.08213592  0.25573351     0.03050
C590        C  0.54511182  0.05277221  0.30170944    -0.13100
C591        C  0.54925564  0.07534132  0.34510701     0.00550
C592        C  0.55937216  0.12578457  0.34167051    -0.11630
C593        C  0.55748215  0.15425466  0.29771010     0.03040
C594        C  0.55608762  0.13293542  0.25443076    -0.11050
H595        H  0.53580727  0.01364558  0.30377691     0.08640
H596        H  0.56000087  0.14356214  0.37480968     0.06170
H597        H  0.55274728  0.15572482  0.22072606     0.06010
C598        C  0.95236006  0.39029863  0.37589162     0.03050
C599        C  0.95776292  0.34046514  0.37753703    -0.13100
C600        C  0.96036588  0.31841290  0.33475158     0.00550
C601        C  0.95371303  0.34412072  0.29064808    -0.11630
C602        C  0.95325629  0.39457704  0.28640669     0.03040
C603        C  0.95175319  0.41829923  0.32962280    -0.11050
H604        H  0.96503282  0.31996107  0.41132352     0.08640
H605        H  0.95608171  0.32538304  0.25811060     0.06170
H606        H  0.95326241  0.45776040  0.32714955     0.06010
O607        O  0.58023455  0.37854973  0.99336407    -0.80210
O608        O  0.94211942  0.45872714  0.22454664    -0.81760
O609        O  0.60917851  0.41221144  0.14248328    -0.78780
O610        O  0.97370488  0.32621134  0.12363131    -0.77170
O611        O  0.91381152  0.34665426  0.07541883    -0.78960
O612        O  0.64129492  0.49213425  0.12406931    -0.79890
O613        O  0.98983554  0.39890659  0.20522749    -0.81220
O614        O  0.55991974  0.34311871  0.07196341    -0.81510
Eu615      Eu  0.52410394  0.40437924  0.11803133     2.39200
O616        O  0.94529640  0.43111210  0.11946232    -0.89020
O617        O  0.57764875  0.46072473  0.06467435    -0.92620
C618        C  0.57676381  0.34190851  0.02730030     1.02070
C619        C  0.96243935  0.41966448  0.23582119     1.01890
C620        C  0.64448199  0.44706863  0.13959037     1.01830
C621        C  0.93465649  0.31553070  0.10323450     0.99690
H622        H  0.53841374  0.47904086  0.17557718     0.29440
O623        O  0.52608968  0.48237402  0.14399203    -1.01400
H624        H  0.99331290  0.37666042  0.02699347     0.29470
O625        O  0.99639552  0.40805756  0.03920963    -1.03940
O626        O  0.92234858  0.09445384  0.13842442    -0.81170
O627        O  0.55765920  0.01194897  0.40778233    -0.80710
O628        O  0.57198239  0.06651538  0.17406159    -0.79150
O629        O  0.84048659  0.42722181  0.09025956    -0.82490
O630        O  0.92674214  0.40938286  0.45590368    -0.80340
O631        O  0.65724509  0.04691621  0.04176563    -0.78990
O632        O  0.52234624  0.14497450  0.00577044    -0.80510
O633        O  0.88956526  0.05963042  0.48461937    -0.82430
O634        O  0.58204314  0.12728780  0.05545104    -0.79170
O635        O  0.85621119  0.48027459  0.00433800    -0.81850
O636        O  0.99349388  0.04528698  0.20819110    -0.77580
O637        O  0.63931683  0.49749656  0.48301086    -0.77620
O638        O  0.00631764  0.42823570  0.42419136    -0.77260
O639        O  0.86029881  0.47394173  0.15060428    -0.80760
O640        O  0.94056308  0.12777679  0.05885843    -0.80180
O641        O  0.00815357  0.07129408  0.42438780    -0.78510
Eu642      Eu  0.94727195  0.00959334  0.14634706     2.39770
Eu643      Eu  0.55248500  0.46221387  0.48625720     2.39570
Eu644      Eu  0.57893269  0.03967705  0.09063628     2.38400
Eu645      Eu  0.91834885  0.43407560  0.04041372     2.39880
Eu646      Eu  0.97367474  0.06640283  0.01166176     2.39790
O647        O  0.97336754  0.48835256  0.98661491    -0.92930
O648        O  0.00038081  0.06414366  0.09081693    -0.91820
C649        C  0.92511444  0.13022938  0.10363269     1.02240
C650        C  0.53679648  0.05029333  0.39516196     1.00960
C651        C  0.53809681  0.06263622  0.21005761     1.00350
C652        C  0.82961034  0.44653379  0.12945110     1.02370
C653        C  0.96166797  0.41221030  0.42097816     1.01280
C654        C  0.66907298  0.02632578  0.00363370     1.00130
C655        C  0.56070540  0.15704076  0.02657271     1.00190
C656        C  0.85377309  0.02524566  0.48785682     1.02800
H657        H  0.57534632  0.06400722  0.48884590     0.30180
O658        O  0.55317466  0.04138488  0.01121434    -1.05090
H659        H  0.88918944  0.02440355  0.07123912     0.32230
O660        O  0.92078013  0.01239475  0.06811673    -1.07650
C661        C  0.56081643  0.24137338  0.31029190    -0.21380
C662        C  0.53391546  0.19831108  0.30217520    -0.09430
C663        C  0.98263905  0.19343827  0.30909228     0.29430
C664        C  0.95837370  0.23182508  0.32355504    -0.21390
C665        C  0.98512130  0.27495068  0.33149688    -0.09440
C666        C  0.53641330  0.28007716  0.32431092     0.29440
F667        F  0.56246671  0.32323251  0.32873656    -0.19960
H668        H  0.60031302  0.24465323  0.30625908     0.17800
H669        H  0.91886611  0.22847692  0.32744337     0.17810
F670        F  0.95634334  0.15067022  0.30373533    -0.19950
C671        C  0.71507649  0.44804575  0.31871056    -0.21380
C672        C  0.74015164  0.46704375  0.27410941    -0.09430
C673        C  0.77153554  0.01090250  0.26986721     0.29430
C674        C  0.77846168  0.03488636  0.31059167    -0.21390
C675        C  0.75365369  0.01567842  0.35530588    -0.09440
C676        C  0.72209085  0.47191819  0.35943349     0.29440
F677        F  0.69911633  0.45157979  0.40316436    -0.19960
H678        H  0.69110339  0.41432068  0.32208943     0.17800
H679        H  0.80282668  0.06833645  0.30732314     0.17810
F680        F  0.79524991  0.03055927  0.22623449    -0.19950
C681        C  0.70369333  0.21580333  0.07687034    -0.21380
C682        C  0.70930764  0.24288851  0.03033197    -0.09430
C683        C  0.75546963  0.26031479  0.00783554     0.29430
C684        C  0.79600998  0.25051437  0.03203251    -0.21390
C685        C  0.79021969  0.22374114  0.07872751    -0.09440
C686        C  0.74411610  0.20595874  0.10094383     0.29440
F687        F  0.73832522  0.18073884  0.14620446    -0.19960
H688        H  0.66773002  0.20251711  0.09453296     0.17800
H689        H  0.83201106  0.26449182  0.01493664     0.17810
F690        F  0.76109732  0.28639004  0.46299089    -0.19950
C691        C  0.59519445  0.29582710  0.01513817     0.03050
C692        C  0.64575802  0.29508813  0.50938831    -0.13100
C693        C  0.66552890  0.25081246  0.50661130     0.00550
C694        C  0.63589361  0.20872024  0.50194308    -0.11630
C695        C  0.58591523  0.20678228  0.01335685     0.03040
C696        C  0.56471624  0.25084724  0.01914316    -0.11050
H697        H  0.66938095  0.32753257  0.51395858     0.08640
H698        H  0.65261998  0.17491289  0.49951628     0.06170
H699        H  0.52589275  0.24992216  0.02902316     0.06010
C700        C  0.90395991  0.17567743  0.61338030     0.03050
C701        C  0.85418083  0.17543502  0.60820627    -0.13100
C702        C  0.83295694  0.21908506  0.60491695     0.00550
C703        C  0.85898626  0.26223026  0.61258748    -0.11630
C704        C  0.90935126  0.26520664  0.61292557     0.03040
C705        C  0.93251166  0.22130348  0.61400730    -0.11050
H706        H  0.83332210  0.14227507  0.60076463     0.08640
H707        H  0.84057502  0.29530359  0.61054901     0.06170
H708        H  0.97188129  0.22283936  0.61215320     0.06010
C709        C  0.69036430  0.43669592  0.66036896     0.03050
C710        C  0.69075941  0.43994753  0.71032243    -0.13100
C711        C  0.73465612  0.44149763  0.73141619     0.00550
C712        C  0.77706144  0.43279235  0.70513887    -0.11630
C713        C  0.77962477  0.43564211  0.65461266     0.03040
C714        C  0.73563853  0.43673481  0.63151004    -0.11050
H715        H  0.65796551  0.44741622  0.73143237     0.08640
H716        H  0.81027227  0.43280646  0.72342675     0.06170
H717        H  0.73685127  0.44062914  0.59208702     0.06010
C718        C  0.80743341  0.03684720  0.96888469     0.03050
C719        C  0.76292744  0.03486544  0.49939250    -0.13100
C720        C  0.71846607  0.03899677  0.97788662     0.00550
C721        C  0.71968784  0.04683633  0.92743182    -0.11630
C722        C  0.76118681  0.03952263  0.89874943     0.03040
C723        C  0.80576972  0.03838621  0.91850178    -0.11050
H724        H  0.76264572  0.02744085  0.53861674     0.08640
H725        H  0.68579707  0.04869561  0.91048676     0.06170
H726        H  0.83791151  0.03218688  0.89561841     0.06100
C727        C  0.54997460  0.08213592  0.75573351     0.03050
C728        C  0.54511182  0.05277221  0.80170944    -0.13100
C729        C  0.54925563  0.07534131  0.84510702     0.00550
C730        C  0.55937214  0.12578457  0.84167052    -0.11630
C731        C  0.55748214  0.15425466  0.79771011     0.03040
C732        C  0.55608763  0.13293543  0.75443077    -0.11050
H733        H  0.53580727  0.01364558  0.80377691     0.08640
H734        H  0.56000085  0.14356213  0.87480969     0.06170
H735        H  0.55274728  0.15572483  0.72072607     0.06010
C736        C  0.95236006  0.39029864  0.87589161     0.03050
C737        C  0.95776292  0.34046514  0.87753702    -0.13100
C738        C  0.96036590  0.31841291  0.83475158     0.00550
C739        C  0.95371306  0.34412073  0.79064807    -0.11630
C740        C  0.95325631  0.39457705  0.78640669     0.03040
C741        C  0.95175320  0.41829924  0.82962279    -0.11050
H742        H  0.96503281  0.31996108  0.91132352     0.08640
H743        H  0.95608174  0.32538305  0.75811059     0.06170
H744        H  0.95326242  0.45776041  0.82714954     0.06010
O745        O  0.58023456  0.37854973  0.49336406    -0.80210
O746        O  0.94211943  0.45872715  0.72454663    -0.81760
O747        O  0.60917853  0.41221145  0.64248328    -0.78780
O748        O  0.97370489  0.32621135  0.62363132    -0.77170
O749        O  0.91381152  0.34665426  0.57541884    -0.78960
O750        O  0.64129494  0.49213426  0.62406931    -0.79890
O751        O  0.98983555  0.39890660  0.70522748    -0.81220
O752        O  0.55991976  0.34311872  0.57196340    -0.81510
Eu753      Eu  0.52410396  0.40437925  0.61803133     2.39200
O754        O  0.94529641  0.43111211  0.61946232    -0.89020
O755        O  0.57764876  0.46072474  0.56467434    -0.92620
C756        C  0.57676382  0.34190852  0.52730029     1.02070
C757        C  0.96243937  0.41966449  0.73582119     1.01890
C758        C  0.64448201  0.44706864  0.63959036     1.01830
C759        C  0.93465650  0.31553070  0.60323452     0.99690
H760        H  0.53841375  0.47904087  0.67557717     0.29440
O761        O  0.52608969  0.48237403  0.64399202    -1.01400
H762        H  0.99331291  0.37666042  0.52699347     0.29470
O763        O  0.99639553  0.40805757  0.53920963    -1.03940
O764        O  0.92234858  0.09445385  0.63842442    -0.81170
O765        O  0.55765919  0.01194896  0.90778233    -0.80710
O766        O  0.57198239  0.06651539  0.67406159    -0.79150
O767        O  0.84048659  0.42722182  0.59025956    -0.82490
O768        O  0.92674213  0.40938287  0.95590367    -0.80340
O769        O  0.65724509  0.04691622  0.54176563    -0.78990
O770        O  0.52234627  0.14497452  0.50577043    -0.80510
O771        O  0.88956525  0.05963040  0.98461938    -0.82430
O772        O  0.58204316  0.12728781  0.55545104    -0.79170
O773        O  0.85621120  0.48027458  0.50433800    -0.81850
O774        O  0.99349389  0.04528699  0.70819110    -0.77580
O775        O  0.63931683  0.49749656  0.98301086    -0.77620
O776        O  0.00631764  0.42823570  0.92419136    -0.77260
O777        O  0.86029882  0.47394174  0.65060427    -0.80760
O778        O  0.94056308  0.12777681  0.55885843    -0.80180
O779        O  0.00815356  0.07129407  0.92438780    -0.78510
Eu780      Eu  0.94727196  0.00959335  0.64634706     2.39770
Eu781      Eu  0.55248499  0.46221387  0.98625721     2.39570
Eu782      Eu  0.57893270  0.03967706  0.59063628     2.38400
Eu783      Eu  0.91834886  0.43407560  0.54041372     2.39880
Eu784      Eu  0.97367475  0.06640285  0.51166176     2.39790
O785        O  0.97336754  0.48835256  0.48661490    -0.92930
O786        O  0.00038082  0.06414367  0.59081693    -0.91820
C787        C  0.92511444  0.13022940  0.60363269     1.02240
C788        C  0.53679647  0.05029332  0.89516197     1.00960
C789        C  0.53809681  0.06263623  0.71005761     1.00350
C790        C  0.82961036  0.44653380  0.62945110     1.02370
C791        C  0.96166797  0.41221031  0.92097816     1.01280
C792        C  0.66907299  0.02632579  0.50363370     1.00130
C793        C  0.56070542  0.15704078  0.52657270     1.00190
C794        C  0.85377308  0.02524565  0.98785683     1.02800
H795        H  0.57534631  0.06400721  0.98884590     0.30180
O796        O  0.55317467  0.04138489  0.51121433    -1.05090
H797        H  0.88918945  0.02440357  0.57123912     0.32230
O798        O  0.92078014  0.01239477  0.56811672    -1.07650
C799        C  0.56081643  0.24137336  0.81029197    -0.21380
C800        C  0.53391546  0.19831109  0.80217520    -0.09430
C801        C  0.98263905  0.19343829  0.80909222     0.29430
C802        C  0.95837370  0.23182510  0.82355498    -0.21390
C803        C  0.98512130  0.27495068  0.83149689    -0.09440
C804        C  0.53641329  0.28007714  0.82431099     0.29440
F805        F  0.56246670  0.32323247  0.82873671    -0.19960
H806        H  0.60031302  0.24465320  0.80625921     0.17800
H807        H  0.91886612  0.22847696  0.82744326     0.17810
F808        F  0.95634335  0.15067027  0.80373520    -0.19950
C809        C  0.71507649  0.44804578  0.81871056    -0.21380
C810        C  0.74015165  0.46704378  0.77410941    -0.09430
C811        C  0.77153556  0.01090250  0.76986721     0.29430
C812        C  0.77846169  0.03488636  0.81059167    -0.21390
C813        C  0.75365369  0.01567842  0.85530588    -0.09440
C814        C  0.72209085  0.47191821  0.85943349     0.29440
F815        F  0.69911632  0.45157981  0.90316435    -0.19960
H816        H  0.69110339  0.41432071  0.82208942     0.17800
H817        H  0.80282669  0.06833646  0.80732315     0.17810
F818        F  0.79524993  0.03055928  0.72623450    -0.19950
C819        C  0.70369333  0.21580337  0.57687041    -0.21380
C820        C  0.70930765  0.24288854  0.53033203    -0.09430
C821        C  0.75546965  0.26031482  0.50783561     0.29430
C822        C  0.79600999  0.25051439  0.53203260    -0.21390
C823        C  0.79021968  0.22374118  0.57872760    -0.09440
C824        C  0.74411609  0.20595879  0.60094392     0.29440
F825        F  0.73832519  0.18073890  0.64620455    -0.19960
H826        H  0.66773002  0.20251716  0.59453302     0.17800
H827        H  0.83201107  0.26449184  0.51493674     0.17810
F828        F  0.76109729  0.28639002  0.96299082    -0.19950
C829        C  0.59519447  0.79582711  0.51513816     0.03050
C830        C  0.64575802  0.79508811  0.00938838    -0.13100
C831        C  0.66552890  0.75081244  0.00661141     0.00550
C832        C  0.63589363  0.70872023  0.00194316    -0.11630
C833        C  0.58591527  0.70678229  0.51335686     0.03040
C834        C  0.56471626  0.75084725  0.51914313    -0.11050
H835        H  0.66938094  0.82753255  0.01395867     0.08640
H836        H  0.65262001  0.67491287  0.99951639     0.06170
H837        H  0.52589277  0.74992217  0.52902308     0.06010
C838        C  0.90395987  0.67567743  0.11338036     0.03050
C839        C  0.85418078  0.67543503  0.10820643    -0.13100
C840        C  0.83295689  0.71908507  0.10491718     0.00550
C841        C  0.85898624  0.76223026  0.11258769    -0.11630
C842        C  0.90935126  0.76520663  0.11292566     0.03040
C843        C  0.93251164  0.72130347  0.11400731    -0.11050
H844        H  0.83332203  0.64227508  0.10076481     0.08640
H845        H  0.84057502  0.79530360  0.11054927     0.06170
H846        H  0.97188128  0.72283935  0.11215314     0.06010
C847        C  0.69036430  0.93669590  0.16036895     0.03050
C848        C  0.69075941  0.93994750  0.21032243    -0.13100
C849        C  0.73465612  0.94149759  0.23141618     0.00550
C850        C  0.77706145  0.93279232  0.20513887    -0.11630
C851        C  0.77962477  0.93564209  0.15461266     0.03040
C852        C  0.73563853  0.93673480  0.13151004    -0.11050
H853        H  0.65796552  0.94741619  0.23143237     0.08640
H854        H  0.81027227  0.93280642  0.22342675     0.06170
H855        H  0.73685127  0.94062914  0.09208701     0.06010
C856        C  0.80743341  0.53684723  0.46888468     0.03050
C857        C  0.76292742  0.53486544  0.99939252    -0.13100
C858        C  0.71846607  0.53899679  0.47788662     0.00550
C859        C  0.71968783  0.54683636  0.42743181    -0.11630
C860        C  0.76118680  0.53952265  0.39874942     0.03040
C861        C  0.80576971  0.53838623  0.41850177    -0.11050
H862        H  0.76264570  0.52744085  0.03861676     0.08640
H863        H  0.68579706  0.54869564  0.41048676     0.06170
H864        H  0.83791150  0.53218690  0.39561841     0.06100
C865        C  0.54997459  0.58213592  0.25573352     0.03050
C866        C  0.54511181  0.55277221  0.30170945    -0.13100
C867        C  0.54925564  0.57534132  0.34510702     0.00550
C868        C  0.55937215  0.62578457  0.34167052    -0.11630
C869        C  0.55748213  0.65425466  0.29771011     0.03040
C870        C  0.55608761  0.63293543  0.25443077    -0.11050
H871        H  0.53580727  0.51364558  0.30377692     0.08640
H872        H  0.56000087  0.64356214  0.37480969     0.06170
H873        H  0.55274726  0.65572482  0.22072607     0.06010
C874        C  0.95236007  0.89029863  0.37589160     0.03050
C875        C  0.95776293  0.84046513  0.37753702    -0.13100
C876        C  0.96036591  0.81841290  0.33475157     0.00550
C877        C  0.95371307  0.84412071  0.29064807    -0.11630
C878        C  0.95325632  0.89457703  0.28640668     0.03040
C879        C  0.95175321  0.91829923  0.32962278    -0.11050
H880        H  0.96503282  0.81996106  0.41132351     0.08640
H881        H  0.95608175  0.82538303  0.25811059     0.06170
H882        H  0.95326244  0.95776040  0.32714953     0.06010
O883        O  0.58023456  0.87854972  0.99336405    -0.80210
O884        O  0.94211944  0.95872713  0.22454662    -0.81760
O885        O  0.60917853  0.91221144  0.14248327    -0.78780
O886        O  0.97370490  0.82621135  0.12363133    -0.77170
O887        O  0.91381151  0.84665423  0.07541887    -0.78960
O888        O  0.64129494  0.99213425  0.12406930    -0.79890
O889        O  0.98983557  0.89890658  0.20522747    -0.81220
O890        O  0.55991976  0.84311871  0.07196340    -0.81510
Eu891      Eu  0.52410396  0.90437924  0.11803133     2.39200
O892        O  0.94529642  0.93111209  0.11946231    -0.89020
O893        O  0.57764876  0.96072473  0.06467434    -0.92620
C894        C  0.57676381  0.84190851  0.02730029     1.02070
C895        C  0.96243938  0.91966447  0.23582118     1.01890
C896        C  0.64448201  0.94706863  0.13959036     1.01830
C897        C  0.93465650  0.81553069  0.10323455     0.99690
H898        H  0.53841375  0.97904086  0.17557717     0.29440
O899        O  0.52608969  0.98237402  0.14399202    -1.01400
H900        H  0.99331292  0.87666040  0.02699347     0.29470
O901        O  0.99639554  0.90805754  0.03920962    -1.03940
O902        O  0.92234854  0.59445383  0.13842445    -0.81170
O903        O  0.55765920  0.51194896  0.40778233    -0.80710
O904        O  0.57198238  0.56651538  0.17406160    -0.79150
O905        O  0.84048660  0.92722180  0.09025955    -0.82490
O906        O  0.92674215  0.90938285  0.45590367    -0.80340
O907        O  0.65724508  0.54691622  0.04176565    -0.78990
O908        O  0.52234626  0.64497452  0.00577043    -0.80510
O909        O  0.88956524  0.55963043  0.48461938    -0.82430
O910        O  0.58204315  0.62728779  0.05545105    -0.79170
O911        O  0.85621120  0.98027456  0.00433800    -0.81850
O912        O  0.99349386  0.54528699  0.20819112    -0.77580
O913        O  0.63931684  0.99749656  0.48301086    -0.77620
O914        O  0.00631766  0.92823570  0.42419134    -0.77260
O915        O  0.86029883  0.97394173  0.15060427    -0.80760
O916        O  0.94056304  0.62777681  0.05885846    -0.80180
O917        O  0.00815356  0.57129409  0.42438781    -0.78510
Eu918      Eu  0.94727193  0.50959335  0.14634708     2.39770
Eu919      Eu  0.55248501  0.96221387  0.48625720     2.39570
Eu920      Eu  0.57893268  0.53967705  0.09063629     2.38400
Eu921      Eu  0.91834887  0.93407557  0.04041372     2.39880
Eu922      Eu  0.97367472  0.56640286  0.01166178     2.39790
O923        O  0.97336755  0.98835253  0.98661490    -0.92930
O924        O  0.00038080  0.56414368  0.09081695    -0.91820
C925        C  0.92511439  0.63022939  0.10363272     1.02240
C926        C  0.53679647  0.55029332  0.39516197     1.00960
C927        C  0.53809680  0.56263622  0.21005761     1.00350
C928        C  0.82961036  0.94653378  0.12945109     1.02370
C929        C  0.96166798  0.91221029  0.42097815     1.01280
C930        C  0.66907297  0.52632579  0.00363371     1.00130
C931        C  0.56070542  0.65704076  0.02657270     1.00190
C932        C  0.85377308  0.52524567  0.48785682     1.02800
H933        H  0.57534631  0.56400722  0.48884590     0.30180
O934        O  0.55317465  0.54138488  0.01121435    -1.05090
H935        H  0.88918943  0.52440357  0.07123913     0.32230
O936        O  0.92078011  0.51239478  0.06811674    -1.07650
C937        C  0.56081641  0.74137337  0.31029192    -0.21380
C938        C  0.53391544  0.69831108  0.30217521    -0.09430
C939        C  0.98263908  0.69343826  0.30909229     0.29430
C940        C  0.95837373  0.73182507  0.32355504    -0.21390
C941        C  0.98512132  0.77495067  0.33149689    -0.09440
C942        C  0.53641328  0.78007716  0.32431094     0.29440
F943        F  0.56246668  0.82323250  0.32873659    -0.19960
H944        H  0.60031300  0.74465323  0.30625911     0.17800
H945        H  0.91886614  0.72847691  0.32744337     0.17810
F946        F  0.95634338  0.65067022  0.30373534    -0.19950
C947        C  0.71507651  0.94804573  0.31871056    -0.21380
C948        C  0.74015165  0.96704374  0.27410941    -0.09430
C949        C  0.77153554  0.51090250  0.26986722     0.29430
C950        C  0.77846167  0.53488637  0.31059167    -0.21390
C951        C  0.75365367  0.51567844  0.35530588    -0.09440
C952        C  0.72209088  0.97191817  0.35943349     0.29440
F953        F  0.69911636  0.95157976  0.40316435    -0.19960
H954        H  0.69110342  0.91432066  0.32208943     0.17800
H955        H  0.80282668  0.56833646  0.30732315     0.17810
F956        F  0.79524991  0.53055927  0.22623450    -0.19950
C957        C  0.70369330  0.71580332  0.07687054    -0.21380
C958        C  0.70930764  0.74288853  0.03033218    -0.09430
C959        C  0.75546964  0.76031488  0.00783582     0.29430
C960        C  0.79600997  0.75051448  0.03203284    -0.21390
C961        C  0.79021964  0.72374123  0.07872783    -0.09440
C962        C  0.74411604  0.70595877  0.10094409     0.29440
F963        F  0.73832512  0.68073883  0.14620470    -0.19960
H964        H  0.66772998  0.70251706  0.09453311     0.17800
H965        H  0.83201105  0.76449197  0.01493702     0.17810
F966        F  0.76109733  0.78639016  0.46299106    -0.19950
C967        C  0.59519447  0.79582710  0.01513817     0.03050
C968        C  0.64575802  0.79508812  0.50938836    -0.13100
C969        C  0.66552890  0.75081245  0.50661137     0.00550
C970        C  0.63589362  0.70872023  0.50194313    -0.11630
C971        C  0.58591527  0.70678228  0.01335687     0.03040
C972        C  0.56471626  0.75084724  0.01914312    -0.11050
H973        H  0.66938095  0.82753256  0.51395864     0.08640
H974        H  0.65262000  0.67491288  0.49951635     0.06170
H975        H  0.52589277  0.74992217  0.02902306     0.06010
C976        C  0.90395989  0.67567744  0.61338034     0.03050
C977        C  0.85418080  0.67543504  0.60820637    -0.13100
C978        C  0.83295691  0.71908508  0.60491710     0.00550
C979        C  0.85898626  0.76223028  0.61258762    -0.11630
C980        C  0.90935127  0.76520665  0.61292563     0.03040
C981        C  0.93251165  0.72130348  0.61400730    -0.11050
H982        H  0.83332206  0.64227509  0.60076474     0.08640
H983        H  0.84057503  0.79530361  0.61054918     0.06170
H984        H  0.97188129  0.72283936  0.61215315     0.06010
C985        C  0.69036431  0.93669592  0.66036895     0.03050
C986        C  0.69075942  0.93994752  0.71032242    -0.13100
C987        C  0.73465613  0.94149760  0.73141618     0.00550
C988        C  0.77706146  0.93279234  0.70513886    -0.11630
C989        C  0.77962478  0.93564210  0.65461265     0.03040
C990        C  0.73563854  0.93673482  0.63151003    -0.11050
H991        H  0.65796553  0.94741620  0.73143237     0.08640
H992        H  0.81027228  0.93280644  0.72342674     0.06170
H993        H  0.73685128  0.94062915  0.59208700     0.06010
C994        C  0.80743340  0.53684723  0.96888469     0.03050
C995        C  0.76292743  0.53486544  0.49939251    -0.13100
C996        C  0.71846606  0.53899679  0.97788663     0.00550
C997        C  0.71968783  0.54683636  0.92743182    -0.11630
C998        C  0.76118680  0.53952266  0.89874943     0.03040
C999        C  0.80576970  0.53838624  0.91850178    -0.11050
H1000       H  0.76264571  0.52744085  0.53861675     0.08640
H1001       H  0.68579705  0.54869564  0.91048677     0.06170
H1002       H  0.83791149  0.53218692  0.89561841     0.06100
C1003       C  0.54997460  0.58213592  0.75573352     0.03050
C1004       C  0.54511181  0.55277221  0.80170945    -0.13100
C1005       C  0.54925562  0.57534132  0.84510702     0.00550
C1006       C  0.55937213  0.62578457  0.84167052    -0.11630
C1007       C  0.55748213  0.65425466  0.79771011     0.03040
C1008       C  0.55608762  0.63293542  0.75443077    -0.11050
H1009       H  0.53580726  0.51364558  0.80377692     0.08640
H1010       H  0.56000084  0.64356214  0.87480969     0.06170
H1011       H  0.55274728  0.65572482  0.72072607     0.06010
C1012       C  0.95236006  0.89029862  0.87589160     0.03050
C1013       C  0.95776292  0.84046513  0.87753701    -0.13100
C1014       C  0.96036591  0.81841290  0.83475156     0.00550
C1015       C  0.95371308  0.84412072  0.79064806    -0.11630
C1016       C  0.95325632  0.89457704  0.78640668     0.03040
C1017       C  0.95175321  0.91829923  0.82962278    -0.11050
H1018       H  0.96503281  0.81996106  0.91132351     0.08640
H1019       H  0.95608176  0.82538304  0.75811058     0.06170
H1020       H  0.95326243  0.95776040  0.82714953     0.06010
O1021       O  0.58023456  0.87854973  0.49336405    -0.80210
O1022       O  0.94211945  0.95872714  0.72454662    -0.81760
O1023       O  0.60917854  0.91221145  0.64248327    -0.78780
O1024       O  0.97370491  0.82621136  0.62363132    -0.77170
O1025       O  0.91381153  0.84665425  0.57541885    -0.78960
O1026       O  0.64129494  0.99213427  0.62406930    -0.79890
O1027       O  0.98983557  0.89890659  0.70522747    -0.81220
O1028       O  0.55991976  0.84311872  0.57196340    -0.81510
Eu1029     Eu  0.52410396  0.90437926  0.61803133     2.39200
O1030       O  0.94529643  0.93111210  0.61946231    -0.89020
O1031       O  0.57764877  0.96072474  0.56467434    -0.92620
C1032       C  0.57676382  0.84190852  0.52730029     1.02070
C1033       C  0.96243939  0.91966448  0.73582117     1.01890
C1034       C  0.64448202  0.94706864  0.63959036     1.01830
C1035       C  0.93465651  0.81553070  0.60323453     0.99690
H1036       H  0.53841376  0.97904087  0.67557717     0.29440
O1037       O  0.52608970  0.98237404  0.64399202    -1.01400
H1038       H  0.99331292  0.87666041  0.52699346     0.29470
O1039       O  0.99639555  0.90805756  0.53920961    -1.03940
O1040       O  0.92234856  0.59445385  0.63842443    -0.81170
O1041       O  0.55765918  0.51194896  0.90778234    -0.80710
O1042       O  0.57198239  0.56651539  0.67406159    -0.79150
O1043       O  0.84048661  0.92722181  0.59025954    -0.82490
O1044       O  0.92674214  0.90938284  0.95590367    -0.80340
O1045       O  0.65724509  0.54691623  0.54176564    -0.78990
O1046       O  0.52234627  0.64497452  0.50577042    -0.80510
O1047       O  0.88956524  0.55963043  0.98461939    -0.82430
O1048       O  0.58204315  0.62728781  0.55545104    -0.79170
O1049       O  0.85621121  0.98027458  0.50433799    -0.81850
O1050       O  0.99349387  0.54528699  0.70819111    -0.77580
O1051       O  0.63931683  0.99749654  0.98301086    -0.77620
O1052       O  0.00631765  0.92823569  0.92419134    -0.77260
O1053       O  0.86029883  0.97394174  0.65060426    -0.80760
O1054       O  0.94056305  0.62777682  0.55885844    -0.80180
O1055       O  0.00815354  0.57129409  0.92438782    -0.78510
Eu1056     Eu  0.94727194  0.50959336  0.64634707     2.39770
Eu1057     Eu  0.55248500  0.96221386  0.98625720     2.39570
Eu1058     Eu  0.57893269  0.53967706  0.59063628     2.38400
Eu1059     Eu  0.91834888  0.93407559  0.54041371     2.39880
Eu1060     Eu  0.97367473  0.56640286  0.51166177     2.39790
O1061       O  0.97336756  0.98835255  0.48661489    -0.92930
O1062       O  0.00038081  0.56414368  0.59081694    -0.91820
C1063       C  0.92511441  0.63022940  0.60363270     1.02240
C1064       C  0.53679646  0.55029332  0.89516197     1.00960
C1065       C  0.53809680  0.56263622  0.71005761     1.00350
C1066       C  0.82961037  0.94653380  0.62945108     1.02370
C1067       C  0.96166797  0.91221029  0.92097815     1.01280
C1068       C  0.66907298  0.52632580  0.50363370     1.00130
C1069       C  0.56070542  0.65704077  0.52657270     1.00190
C1070       C  0.85377307  0.52524568  0.98785683     1.02800
H1071       H  0.57534630  0.56400722  0.98884591     0.30180
O1072       O  0.55317466  0.54138489  0.51121434    -1.05090
H1073       H  0.88918944  0.52440357  0.57123913     0.32230
O1074       O  0.92078012  0.51239478  0.56811673    -1.07650
C1075       C  0.56081641  0.74137336  0.81029198    -0.21380
C1076       C  0.53391545  0.69831109  0.80217519    -0.09430
C1077       C  0.98263908  0.69343829  0.80909221     0.29430
C1078       C  0.95837372  0.73182509  0.82355496    -0.21390
C1079       C  0.98512132  0.77495067  0.83149688    -0.09440
C1080       C  0.53641327  0.78007714  0.82431100     0.29440
F1081       F  0.56246668  0.82323246  0.82873672    -0.19960
H1082       H  0.60031300  0.74465320  0.80625922     0.17800
H1083       H  0.91886614  0.72847695  0.82744323     0.17810
F1084       F  0.95634338  0.65067026  0.80373519    -0.19950
C1085       C  0.71507652  0.94804574  0.81871055    -0.21380
C1086       C  0.74015166  0.96704375  0.77410940    -0.09430
C1087       C  0.77153555  0.51090252  0.76986722     0.29430
C1088       C  0.77846168  0.53488639  0.81059168    -0.21390
C1089       C  0.75365367  0.51567846  0.85530588    -0.09440
C1090       C  0.72209088  0.97191817  0.85943349     0.29440
F1091       F  0.69911636  0.95157976  0.90316435    -0.19960
H1092       H  0.69110342  0.91432067  0.82208941     0.17800
H1093       H  0.80282669  0.56833647  0.80732316     0.17810
F1094       F  0.79524994  0.53055929  0.72623451    -0.19950
C1095       C  0.70369331  0.71580332  0.57687048    -0.21380
C1096       C  0.70930764  0.74288853  0.53033213    -0.09430
C1097       C  0.75546964  0.76031489  0.50783576     0.29430
C1098       C  0.79600998  0.75051449  0.53203277    -0.21390
C1099       C  0.79021966  0.72374123  0.57872775    -0.09440
C1100       C  0.74411606  0.70595877  0.60094402     0.29440
F1101       F  0.73832516  0.68073883  0.64620463    -0.19960
H1102       H  0.66773000  0.70251706  0.59453306     0.17800
H1103       H  0.83201105  0.76449198  0.51493694     0.17810
F1104       F  0.76109734  0.78639015  0.96299112    -0.19950
loop_ 
_geom_bond_atom_site_label_1 
_geom_bond_atom_site_label_2 
_geom_bond_distance 
_geom_bond_site_symmetry_2 
_ccdc_geom_bond_type 
C1            C6   1.425       .  A
C1          C140   1.397       .  A
C1          C204   1.477       .  S
C2            C3   1.394       .  A
C2          C139   1.397       .  A
C2            H7   1.085       .  S
C3            C4   1.384       .  A
C3          C130   1.450       .  S
C4          C143   1.387       .  A
C4            H8   1.087   1_554  S
C5            C6   1.419       .  A
C5          C142   1.387       .  A
C5          C241   1.478       .  S
C6            H9   1.083       .  S
C10          C11   1.396       .  A
C10          C15   1.428       .  A
C10          C97   1.476       .  S
C11          C12   1.389       .  A
C11          H16   1.086       .  S
C12          C13   1.381       .  A
C12         C133   1.448       .  S
C13          C14   1.389       .  A
C13          H17   1.086       .  S
C14          C15   1.424       .  A
C14          C69   1.485       .  S
C15          H18   1.083       .  S
C19          C20   1.397       .  A
C19          C24   1.427       .  A
C19          C68   1.477       .  S
C20          C21   1.391       .  A
C20          H25   1.085       .  S
C21          C22   1.382       .  A
C21         C120   1.452       .  S
C22          C23   1.388       .  A
C22          H26   1.086       .  S
C23          C24   1.424       .  A
C23         C100   1.484       .  S
C24          H27   1.083       .  S
C28          C33   1.396       .  A
C28         C167   1.426       .  A
C28         C104   1.476       .  S
C29         C166   1.426       .  A
C29         C168   1.421       .  A
C29          H34   1.083   1_556  S
C30          C31   1.388       .  A
C30         C167   1.421       .  A
C30         C240   1.480       .  S
C31          C32   1.383       .  A
C31          H35   1.087       .  S
C32          C33   1.393       .  A
C32         C123   1.453       .  S
C33          H36   1.085       .  S
C37          C38   1.425       .  A
C37          C42   1.396       .  A
C37          C99   1.477       .  S
C38          C39   1.420       .  A
C38          H43   1.083       .  S
C39          C40   1.389       .  A
C39          C98   1.480       .  S
C40          C41   1.386       .  A
C40          H44   1.087       .  S
C41          C42   1.393       .  A
C41         C110   1.446       .  S
C42          H45   1.085       .  S
C46          C47   1.396       .  A
C46          C51   1.427       .  A
C46         C101   1.476       .  S
C47          C48   1.389       .  A
C47          H52   1.085       .  S
C48          C49   1.382       .  A
C48         C113   1.445       .  S
C49          C50   1.389       .  A
C49          H53   1.086       .  S
C50          C51   1.424       .  A
C50          C67   1.486       .  S
C51          H54   1.083       .  S
O55          C66   1.298   1_556  A
O55        Eu229   2.498       .  S
O56          C67   1.285       .  A
O56        Eu366   2.440       .  S
O57          C68   1.298       .  A
O57         Eu63   2.501       .  S
O58          C69   1.286       .  A
O58        Eu615   2.444       .  S
O59          C69   1.302       .  A
O59         Eu93   2.495       .  S
O60          C68   1.288       .  A
O60        Eu368   2.450       .  S
O61          C67   1.303       .  A
O61        Eu615   2.502       .  S
O62          C66   1.289       .  A
O62         Eu63   2.457       .  S
Eu63        O610   2.444   1_455  S
Eu63        O613   2.502   1_455  S
Eu63         O65   2.348       .  S
Eu63         O71   2.342       .  S
Eu63        O625   2.370   1_455  S
Eu63        O616   2.365   1_455  S
O64         Eu93   2.368       .  S
O64        Eu615   2.365       .  S
O64        Eu366   2.366       .  S
O65        Eu229   2.334   1_554  S
O65        Eu368   2.368       .  S
C66         C139   1.477       .  S
H70          O71   0.964       .  S
O71        Eu368   2.353       .  S
O71        Eu918   2.371   1_455  S
H72          O73   0.964       .  S
O73         Eu93   2.338       .  S
O73        Eu615   2.370       .  S
O73        Eu781   2.348   1_554  S
O74          C97   1.298       .  A
O74         Eu90   2.500       .  S
O75          C98   1.284       .  A
O75        Eu367   2.431   1_545  S
O76          C99   1.298       .  A
O76         Eu92   2.498       .  S
O77         C100   1.285       .  A
O77         Eu93   2.438       .  S
O78         C101   1.299       .  A
O78        Eu231   2.505       .  S
O79         C102   1.285       .  A
O79         Eu92   2.435       .  S
O80         C103   1.284       .  A
O80        Eu646   2.430   1_455  S
O81         C104   1.298       .  A
O81        Eu232   2.502       .  S
O82         C103   1.302       .  A
O82         Eu92   2.505       .  S
O83         C518   1.288   1_554  A
O83         Eu93   2.453       .  S
O84         C651   1.289       .  A
O84         Eu90   2.458       .  S
O85         C516   1.302       .  A
O85         Eu91   2.498       .  S
O86         C101   1.287       .  A
O86        Eu643   2.442       .  S
O87         C100   1.303       .  A
O87        Eu366   2.503       .  S
O88          C97   1.288       .  A
O88         Eu94   2.447       .  S
O89         C650   1.303       .  A
O89        Eu232   2.507       .  S
Eu90        O332   2.440   1_545  S
Eu90        O363   2.503   1_545  S
Eu90        O108   2.341       .  S
Eu90         O96   2.347       .  S
Eu90        O340   2.366   1_545  S
Eu90        O899   2.371   1_545  S
Eu91        O193   2.498       .  S
Eu91        O351   2.431       .  S
Eu91        O638   2.442       .  S
Eu91        O203   2.334       .  S
Eu91        O763   2.348   1_455  S
Eu91        O785   2.368   1_455  S
Eu91        O520   2.364       .  S
Eu92        O336   2.450   1_545  S
Eu92        O106   2.366       .  S
Eu92        O341   2.368   1_545  S
Eu92        O347   2.353   1_545  S
Eu92        O648   2.336       .  S
Eu93        O216   2.505   1_554  S
Eu93         O95   2.346   1_554  S
Eu93        O384   2.371       .  S
Eu94        O632   2.430       .  S
Eu94        O219   2.502   1_554  S
Eu94        O227   2.507   1_554  S
Eu94        O108   2.350       .  S
Eu94         O96   2.369       .  S
Eu94        O371   2.336   1_544  S
Eu94        O658   2.366       .  S
O95        Eu781   2.368       .  S
O95        Eu370   2.336   1_556  S
O96        Eu644   2.336       .  S
C98         O641   1.303       .  A
C99         O636   1.289   1_455  A
C102        C168   1.480   1_554  S
C102        O499   1.302   1_544  A
C103        C143   1.478       .  S
C104        O497   1.288   1_545  A
H105        O244   0.966       .  S
O106       Eu505   2.364   1_544  S
O106       Eu646   2.366   1_455  S
O106        H243   0.966   1_554  S
H107        O108   0.964       .  S
O108       Eu369   2.371   1_545  S
C109        C110   1.394       .  A
C109        C114   1.390       .  A
C109        H116   1.083       .  S
C110        C663   1.407   1_455  A
C111        C112   1.384       .  A
C111        C662   1.407       .  A
C111        F118   1.359       .  S
C112        C113   1.392       .  A
C112        H117   1.084       .  S
C113        C666   1.408       .  A
C114        C665   1.408   1_455  A
C114        F115   1.358       .  S
C119        C120   1.390       .  A
C119        C124   1.385       .  A
C119        H126   1.084       .  S
C120        C397   1.413       .  A
C121        C122   1.386       .  A
C121        C396   1.413   1_545  A
C121        F128   1.358       .  S
C122        C123   1.391       .  A
C122        H127   1.084       .  S
C123        C400   1.413   1_545  A
C124        C399   1.413       .  A
C124        F125   1.358       .  S
C129        C130   1.409       .  A
C129        C134   1.384       .  A
C129        H136   1.084       .  S
C130        C131   1.392       .  A
C131        C132   1.388       .  A
C131        F276   1.357   1_554  S
C132        C133   1.409       .  A
C132        H137   1.084       .  S
C133        C134   1.390       .  A
C134        F135   1.357       .  S
F138        C269   1.357       .  S
C139        C144   1.425       .  A
C140        C141   1.394       .  A
C140        H145   1.085       .  S
C141        C142   1.384       .  A
C141        C268   1.450       .  S
C142        H146   1.087       .  S
C143        C144   1.419       .  A
C144        H147   1.083       .  S
C148        C149   1.396       .  A
C148        C153   1.428       .  A
C148        C235   1.476       .  S
C149        C150   1.389       .  A
C149        H154   1.086       .  S
C150        C151   1.381       .  A
C150        C271   1.448       .  S
C151        C152   1.389       .  A
C151        H155   1.086       .  S
C152        C153   1.424       .  A
C152        C207   1.485       .  S
C153        H156   1.083       .  S
C157        C158   1.397       .  A
C157        C162   1.427       .  A
C157        C206   1.477       .  S
C158        C159   1.391       .  A
C158        H163   1.085       .  S
C159        C160   1.382       .  A
C159        C258   1.452       .  S
C160        C161   1.388       .  A
C160        H164   1.086       .  S
C161        C162   1.424       .  A
C161        C238   1.484       .  S
C162        H165   1.083       .  S
C166        C171   1.396       .  A
C166        C242   1.476       .  S
C167        H172   1.083       .  S
C168        C169   1.388       .  A
C169        C170   1.383       .  A
C169        H173   1.087       .  S
C170        C171   1.393       .  A
C170        C261   1.453       .  S
C171        H174   1.085       .  S
C175        C176   1.425       .  A
C175        C180   1.396       .  A
C175        C237   1.477       .  S
C176        C177   1.420       .  A
C176        H181   1.083       .  S
C177        C178   1.389       .  A
C177        C236   1.480       .  S
C178        C179   1.386       .  A
C178        H182   1.087       .  S
C179        C180   1.393       .  A
C179        C248   1.446       .  S
C180        H183   1.085       .  S
C184        C185   1.396       .  A
C184        C189   1.427       .  A
C184        C239   1.476       .  S
C185        C186   1.389       .  A
C185        H190   1.085       .  S
C186        C187   1.382       .  A
C186        C251   1.445       .  S
C187        C188   1.389       .  A
C187        H191   1.086       .  S
C188        C189   1.424       .  A
C188        C205   1.486       .  S
C189        H192   1.083       .  S
O193        C204   1.298       .  A
O194        C205   1.285       .  A
O194       Eu504   2.440       .  S
O195        C206   1.298       .  A
O195       Eu201   2.501       .  S
O196        C207   1.286       .  A
O196       Eu753   2.444       .  S
O197        C207   1.302       .  A
O197       Eu231   2.495       .  S
O198        C206   1.288       .  A
O198       Eu506   2.450       .  S
O199        C205   1.303       .  A
O199       Eu753   2.502       .  S
O200        C204   1.289       .  A
O200       Eu201   2.457       .  S
Eu201       O748   2.444   1_455  S
Eu201       O751   2.502   1_455  S
Eu201       O763   2.370   1_455  S
Eu201       O203   2.348       .  S
Eu201       O754   2.365   1_455  S
Eu201       O209   2.342       .  S
O202       Eu753   2.365       .  S
O202       Eu231   2.368       .  S
O202       Eu504   2.366       .  S
O203       Eu506   2.368       .  S
H208        O209   0.964       .  S
O209       Eu506   2.353       .  S
O209      Eu1056   2.371   1_455  S
H210        O211   0.964       .  S
O211       Eu753   2.370       .  S
O211       Eu643   2.348       .  S
O211       Eu231   2.338       .  S
O212        C235   1.298       .  A
O212       Eu228   2.500       .  S
O213        C236   1.284       .  A
O213       Eu505   2.431   1_545  S
O214        C237   1.298       .  A
O214       Eu230   2.498       .  S
O215        C238   1.285       .  A
O215       Eu231   2.438       .  S
O216        C239   1.299       .  A
O217        C240   1.285       .  A
O217       Eu230   2.435       .  S
O218        C241   1.284       .  A
O218       Eu784   2.430   1_455  S
O219        C242   1.298       .  A
O220        C241   1.302       .  A
O220       Eu230   2.505       .  S
O221        C380   1.288       .  A
O221       Eu231   2.453       .  S
O222        C789   1.289       .  A
O222       Eu228   2.458       .  S
O223        C378   1.302   1_556  A
O223       Eu229   2.498       .  S
O224        C239   1.287       .  A
O224       Eu781   2.442       .  S
O225        C238   1.303       .  A
O225       Eu504   2.503       .  S
O226        C235   1.288       .  A
O226       Eu232   2.447       .  S
O227        C788   1.303       .  A
Eu228       O470   2.440   1_545  S
Eu228       O501   2.503   1_545  S
Eu228       O478   2.366   1_545  S
Eu228      O1037   2.371   1_545  S
Eu228       O246   2.341       .  S
Eu228       O234   2.347       .  S
Eu229       O489   2.431       .  S
Eu229       O776   2.442       .  S
Eu229       O625   2.348   1_456  S
Eu229       O647   2.368   1_455  S
Eu229       O382   2.364   1_556  S
Eu230       O474   2.450   1_545  S
Eu230       O479   2.368   1_545  S
Eu230       O485   2.353   1_545  S
Eu230       O244   2.366       .  S
Eu230       O786   2.336       .  S
Eu231       O233   2.346       .  S
Eu231       O522   2.371       .  S
Eu232       O770   2.430       .  S
Eu232       O509   2.336   1_545  S
Eu232       O796   2.366       .  S
Eu232       O246   2.350       .  S
Eu232       O234   2.369       .  S
O233       Eu643   2.368       .  S
O233       Eu508   2.336       .  S
O234       Eu782   2.336       .  S
C236        O779   1.303       .  A
C237        O774   1.289   1_455  A
C240        O361   1.302   1_545  A
C242        O359   1.288   1_546  A
O244       Eu367   2.364   1_545  S
O244       Eu784   2.366   1_455  S
H245        O246   0.964       .  S
O246       Eu507   2.371   1_545  S
C247        C248   1.394       .  A
C247        C252   1.390       .  A
C247        H254   1.083       .  S
C248        C801   1.407   1_455  A
C249        C800   1.407       .  A
C249        C250   1.384       .  A
C249        F256   1.359       .  S
C250        C251   1.392       .  A
C250        H255   1.084       .  S
C251        C804   1.408       .  A
C252        C803   1.408   1_455  A
C252        F253   1.358       .  S
C257        C258   1.390       .  A
C257        C262   1.385       .  A
C257        H264   1.084       .  S
C258        C535   1.413       .  A
C259        C534   1.413   1_545  A
C259        C260   1.386       .  A
C259        F266   1.358       .  S
C260        C261   1.391       .  A
C260        H265   1.084       .  S
C261        C538   1.413   1_545  A
C262        C537   1.413       .  A
C262        F263   1.358       .  S
C267        C268   1.409       .  A
C267        C272   1.384       .  A
C267        H274   1.084       .  S
C268        C269   1.392       .  A
C269        C270   1.388       .  A
C270        C271   1.409       .  A
C270        H275   1.084       .  S
C271        C272   1.390       .  A
C272        F273   1.357       .  S
C277        C416   1.397       .  A
C277        C282   1.425       .  A
C277        C480   1.477       .  S
C278        C415   1.397       .  A
C278        C279   1.394       .  A
C278        H283   1.085       .  S
C279        C280   1.384       .  A
C279        C406   1.450       .  S
C280        C419   1.387       .  A
C280        H284   1.087   1_554  S
C281        C418   1.387       .  A
C281        C282   1.419       .  A
C281        C517   1.478       .  S
C282        H285   1.083       .  S
C286        C287   1.396       .  A
C286        C291   1.428       .  A
C286        C373   1.476       .  S
C287        C288   1.389       .  A
C287        H292   1.086       .  S
C288        C289   1.381       .  A
C288        C409   1.448       .  S
C289        C290   1.389       .  A
C289        H293   1.086       .  S
C290        C291   1.424       .  A
C290        C345   1.485       .  S
C291        H294   1.083       .  S
C295        C296   1.397       .  A
C295        C300   1.427       .  A
C295        C344   1.477       .  S
C296        C297   1.391       .  A
C296        H301   1.085       .  S
C297        C298   1.382       .  A
C297        C396   1.452       .  S
C298        C299   1.388       .  A
C298        H302   1.086       .  S
C299        C300   1.424       .  A
C299        C376   1.484       .  S
C300        H303   1.083       .  S
C304        C443   1.426       .  A
C304        C309   1.396       .  A
C304        C380   1.476       .  S
C305        C442   1.426       .  A
C305        C444   1.421       .  A
C305        H310   1.083   1_556  S
C306        C443   1.421       .  A
C306        C307   1.388       .  A
C306        C516   1.480       .  S
C307        C308   1.383       .  A
C307        H311   1.087       .  S
C308        C309   1.393       .  A
C308        C399   1.453       .  S
C309        H312   1.085       .  S
C313        C314   1.425       .  A
C313        C318   1.396       .  A
C313        C375   1.477       .  S
C314        C315   1.420       .  A
C314        H319   1.083       .  S
C315        C316   1.389       .  A
C315        C374   1.480       .  S
C316        C317   1.386       .  A
C316        H320   1.087       .  S
C317        C318   1.393       .  A
C317        C386   1.446       .  S
C318        H321   1.085       .  S
C322        C323   1.396       .  A
C322        C327   1.427       .  A
C322        C377   1.476       .  S
C323        C324   1.389       .  A
C323        H328   1.085       .  S
C324        C325   1.382       .  A
C324        C389   1.445       .  S
C325        C326   1.389       .  A
C325        H329   1.086       .  S
C326        C327   1.424       .  A
C326        C343   1.486       .  S
C327        H330   1.083       .  S
O331        C342   1.298   1_556  A
O331       Eu505   2.498       .  S
O332        C343   1.285       .  A
O333        C344   1.298       .  A
O333       Eu339   2.501       .  S
O334        C345   1.286       .  A
O334       Eu891   2.444       .  S
O335        C345   1.302       .  A
O335       Eu369   2.495       .  S
O336        C344   1.288       .  A
O337        C343   1.303       .  A
O337       Eu891   2.502       .  S
O338        C342   1.289       .  A
O338       Eu339   2.457       .  S
Eu339       O886   2.444   1_455  S
Eu339       O889   2.502   1_455  S
Eu339       O901   2.370   1_455  S
Eu339       O341   2.348       .  S
Eu339       O892   2.365   1_455  S
Eu339       O347   2.342       .  S
O340       Eu891   2.365       .  S
O340       Eu369   2.368       .  S
O341       Eu505   2.334   1_554  S
C342        C415   1.477       .  S
H346        O347   0.964       .  S
O347       Eu642   2.371   1_465  S
H348        O349   0.964       .  S
O349       Eu891   2.370       .  S
O349      Eu1057   2.348   1_554  S
O349       Eu369   2.338       .  S
O350        C373   1.298       .  A
O350       Eu366   2.500       .  S
O351        C374   1.284       .  A
O352        C375   1.298       .  A
O352       Eu368   2.498       .  S
O353        C376   1.285       .  A
O353       Eu369   2.438       .  S
O354        C377   1.299       .  A
O354       Eu507   2.505       .  S
O355        C378   1.285       .  A
O355       Eu368   2.435       .  S
O356        C379   1.284       .  A
O356       Eu922   2.430   1_455  S
O357        C380   1.298       .  A
O357       Eu508   2.502       .  S
O358        C379   1.302       .  A
O358       Eu368   2.505       .  S
O359       Eu369   2.453       .  S
O360        C927   1.289       .  A
O360       Eu366   2.458       .  S
O361       Eu367   2.498       .  S
O362        C377   1.287       .  A
O362       Eu919   2.442       .  S
O363        C376   1.303       .  A
O364        C373   1.288       .  A
O364       Eu370   2.447       .  S
O365        C926   1.303       .  A
O365       Eu508   2.507       .  S
Eu366       O623   2.371       .  S
Eu366       O384   2.341       .  S
Eu366       O372   2.347       .  S
Eu367       O469   2.498       .  S
Eu367       O914   2.442       .  S
Eu367       O479   2.334       .  S
Eu367      O1039   2.348   1_455  S
Eu367      O1061   2.368   1_455  S
Eu368       O382   2.366       .  S
Eu368       O924   2.336       .  S
Eu369       O492   2.505   1_554  S
Eu369       O371   2.346   1_554  S
Eu370       O908   2.430       .  S
Eu370       O495   2.502   1_554  S
Eu370       O503   2.507   1_554  S
Eu370       O934   2.366       .  S
Eu370       O384   2.350       .  S
Eu370       O372   2.369       .  S
O371      Eu1057   2.368       .  S
O372       Eu920   2.336       .  S
C374        O917   1.303       .  A
C375        O912   1.289   1_455  A
C378        C444   1.480   1_554  S
C379        C419   1.478       .  S
H381        O520   0.966       .  S
O382       Eu922   2.366   1_455  S
O382        H519   0.966   1_554  S
H383        O384   0.964       .  S
C385        C386   1.394       .  A
C385        C390   1.390       .  A
C385        H392   1.083       .  S
C386        C939   1.407   1_455  A
C387        C938   1.407       .  A
C387        C388   1.384       .  A
C387        F394   1.359       .  S
C388        C389   1.392       .  A
C388        H393   1.084       .  S
C389        C942   1.408       .  A
C390        C941   1.408   1_455  A
C390        F391   1.358       .  S
C395        C396   1.390       .  A
C395        C400   1.385       .  A
C395        H402   1.084       .  S
C397        C398   1.386       .  A
C397        F404   1.358       .  S
C398        C399   1.391       .  A
C398        H403   1.084       .  S
C400        F401   1.358       .  S
C405        C406   1.409       .  A
C405        C410   1.384       .  A
C405        H412   1.084       .  S
C406        C407   1.392       .  A
C407        C408   1.388       .  A
C407        F552   1.357   1_554  S
C408        C409   1.409       .  A
C408        H413   1.084       .  S
C409        C410   1.390       .  A
C410        F411   1.357       .  S
F414        C545   1.357       .  S
C415        C420   1.425       .  A
C416        C417   1.394       .  A
C416        H421   1.085       .  S
C417        C418   1.384       .  A
C417        C544   1.450       .  S
C418        H422   1.087       .  S
C419        C420   1.419       .  A
C420        H423   1.083       .  S
C424        C425   1.396       .  A
C424        C429   1.428       .  A
C424        C511   1.476       .  S
C425        C426   1.389       .  A
C425        H430   1.086       .  S
C426        C427   1.381       .  A
C426        C547   1.448       .  S
C427        C428   1.389       .  A
C427        H431   1.086       .  S
C428        C429   1.424       .  A
C428        C483   1.485       .  S
C429        H432   1.083       .  S
C433        C434   1.397       .  A
C433        C438   1.427       .  A
C433        C482   1.477       .  S
C434        C435   1.391       .  A
C434        H439   1.085       .  S
C435        C436   1.382       .  A
C435        C534   1.452       .  S
C436        C437   1.388       .  A
C436        H440   1.086       .  S
C437        C438   1.424       .  A
C437        C514   1.484       .  S
C438        H441   1.083       .  S
C442        C447   1.396       .  A
C442        C518   1.476       .  S
C443        H448   1.083       .  S
C444        C445   1.388       .  A
C445        C446   1.383       .  A
C445        H449   1.087       .  S
C446        C447   1.393       .  A
C446        C537   1.453       .  S
C447        H450   1.085       .  S
C451        C452   1.425       .  A
C451        C456   1.396       .  A
C451        C513   1.477       .  S
C452        C453   1.420       .  A
C452        H457   1.083       .  S
C453        C454   1.389       .  A
C453        C512   1.480       .  S
C454        C455   1.386       .  A
C454        H458   1.087       .  S
C455        C456   1.393       .  A
C455        C524   1.446       .  S
C456        H459   1.085       .  S
C460        C461   1.396       .  A
C460        C465   1.427       .  A
C460        C515   1.476       .  S
C461        C462   1.389       .  A
C461        H466   1.085       .  S
C462        C463   1.382       .  A
C462        C527   1.445       .  S
C463        C464   1.389       .  A
C463        H467   1.086       .  S
C464        C465   1.424       .  A
C464        C481   1.486       .  S
C465        H468   1.083       .  S
O469        C480   1.298       .  A
O470        C481   1.285       .  A
O471        C482   1.298       .  A
O471       Eu477   2.501       .  S
O472        C483   1.286       .  A
O472      Eu1029   2.444       .  S
O473        C483   1.302       .  A
O473       Eu507   2.495       .  S
O474        C482   1.288       .  A
O475        C481   1.303       .  A
O475      Eu1029   2.502       .  S
O476        C480   1.289       .  A
O476       Eu477   2.457       .  S
Eu477      O1024   2.444   1_455  S
Eu477      O1027   2.502   1_455  S
Eu477      O1039   2.370   1_455  S
Eu477       O479   2.348       .  S
Eu477      O1030   2.365   1_455  S
Eu477       O485   2.342       .  S
O478      Eu1029   2.365       .  S
O478       Eu507   2.368       .  S
H484        O485   0.964       .  S
O485       Eu780   2.371   1_465  S
H486        O487   0.964       .  S
O487      Eu1029   2.370       .  S
O487       Eu919   2.348       .  S
O487       Eu507   2.338       .  S
O488        C511   1.298       .  A
O488       Eu504   2.500       .  S
O489        C512   1.284       .  A
O490        C513   1.298       .  A
O490       Eu506   2.498       .  S
O491        C514   1.285       .  A
O491       Eu507   2.438       .  S
O492        C515   1.299       .  A
O493        C516   1.285       .  A
O493       Eu506   2.435       .  S
O494        C517   1.284       .  A
O494      Eu1060   2.430   1_455  S
O495        C518   1.298       .  A
O496        C517   1.302       .  A
O496       Eu506   2.505       .  S
O497       Eu507   2.453       .  S
O498       C1065   1.289       .  A
O498       Eu504   2.458       .  S
O499       Eu505   2.498       .  S
O500        C515   1.287       .  A
O500      Eu1057   2.442       .  S
O501        C514   1.303       .  A
O502        C511   1.288       .  A
O502       Eu508   2.447       .  S
O503       C1064   1.303       .  A
Eu504       O761   2.371       .  S
Eu504       O522   2.341       .  S
Eu504       O510   2.347       .  S
Eu505      O1052   2.442       .  S
Eu505       O901   2.348   1_456  S
Eu505       O923   2.368   1_455  S
Eu506       O520   2.366       .  S
Eu506      O1062   2.336       .  S
Eu507       O509   2.346       .  S
Eu508      O1046   2.430       .  S
Eu508      O1072   2.366       .  S
Eu508       O522   2.350       .  S
Eu508       O510   2.369       .  S
O509       Eu919   2.368       .  S
O510      Eu1058   2.336       .  S
C512       O1055   1.303       .  A
C513       O1050   1.289   1_455  A
O520      Eu1060   2.366   1_455  S
H521        O522   0.964       .  S
C523        C524   1.394       .  A
C523        C528   1.390       .  A
C523        H530   1.083       .  S
C524       C1077   1.407   1_455  A
C525       C1076   1.407       .  A
C525        C526   1.384       .  A
C525        F532   1.359       .  S
C526        C527   1.392       .  A
C526        H531   1.084       .  S
C527       C1080   1.408       .  A
C528       C1079   1.408   1_455  A
C528        F529   1.358       .  S
C533        C534   1.390       .  A
C533        C538   1.385       .  A
C533        H540   1.084       .  S
C535        C536   1.386       .  A
C535        F542   1.358       .  S
C536        C537   1.391       .  A
C536        H541   1.084       .  S
C538        F539   1.358       .  S
C543        C544   1.409       .  A
C543        C548   1.384       .  A
C543        H550   1.084       .  S
C544        C545   1.392       .  A
C545        C546   1.388       .  A
C546        C547   1.409       .  A
C546        H551   1.084       .  S
C547        C548   1.390       .  A
C548        F549   1.357       .  S
C553        C692   1.397       .  A
C553        C558   1.425       .  A
C553        C756   1.477       .  S
C554        C691   1.397       .  A
C554        C555   1.394       .  A
C554        H559   1.085       .  S
C555        C556   1.384       .  A
C555        C682   1.450       .  S
C556        C695   1.387       .  A
C556        H560   1.087   1_554  S
C557        C694   1.387       .  A
C557        C558   1.419       .  A
C557        C793   1.478       .  S
C558        H561   1.083       .  S
C562        C563   1.396       .  A
C562        C567   1.428       .  A
C562        C649   1.476       .  S
C563        C564   1.389       .  A
C563        H568   1.086       .  S
C564        C565   1.381       .  A
C564        C685   1.448       .  S
C565        C566   1.389       .  A
C565        H569   1.086       .  S
C566        C567   1.424       .  A
C566        C621   1.485       .  S
C567        H570   1.083       .  S
C571        C572   1.397       .  A
C571        C576   1.427       .  A
C571        C620   1.477       .  S
C572        C573   1.391       .  A
C572        H577   1.085       .  S
C573        C574   1.382       .  A
C573        C672   1.452       .  S
C574        C575   1.388       .  A
C574        H578   1.086       .  S
C575        C576   1.424       .  A
C575        C652   1.484       .  S
C576        H579   1.083       .  S
C580        C719   1.426       .  A
C580        C585   1.396       .  A
C580        C656   1.476       .  S
C581        C718   1.426       .  A
C581        C720   1.421       .  A
C581        H586   1.083   1_556  S
C582        C719   1.421       .  A
C582        C583   1.388       .  A
C582        C792   1.480       .  S
C583        C584   1.383       .  A
C583        H587   1.087       .  S
C584        C585   1.393       .  A
C584        C675   1.453       .  S
C585        H588   1.085       .  S
C589        C590   1.425       .  A
C589        C594   1.396       .  A
C589        C651   1.477       .  S
C590        C591   1.420       .  A
C590        H595   1.083       .  S
C591        C592   1.389       .  A
C591        C650   1.480       .  S
C592        C593   1.386       .  A
C592        H596   1.087       .  S
C593        C594   1.393       .  A
C593        C662   1.446       .  S
C594        H597   1.085       .  S
C598        C599   1.396       .  A
C598        C603   1.427       .  A
C598        C653   1.476       .  S
C599        C600   1.389       .  A
C599        H604   1.085       .  S
C600        C601   1.382       .  A
C600        C665   1.445       .  S
C601        C602   1.389       .  A
C601        H605   1.086       .  S
C602        C603   1.424       .  A
C602        C619   1.486       .  S
C603        H606   1.083       .  S
O607        C618   1.298   1_556  A
O607       Eu781   2.498       .  S
O608        C619   1.285       .  A
O608       Eu918   2.440       .  S
O609        C620   1.298       .  A
O609       Eu615   2.501       .  S
O610        C621   1.286       .  A
O611        C621   1.302       .  A
O611       Eu645   2.495       .  S
O612        C620   1.288       .  A
O612       Eu920   2.450       .  S
O613        C619   1.303       .  A
O614        C618   1.289       .  A
O614       Eu615   2.457       .  S
Eu615       O617   2.348       .  S
Eu615       O623   2.342       .  S
O616       Eu645   2.368       .  S
O616       Eu918   2.366       .  S
O617       Eu781   2.334   1_554  S
O617       Eu920   2.368       .  S
C618        C691   1.477       .  S
H622        O623   0.964       .  S
O623       Eu920   2.353       .  S
H624        O625   0.964       .  S
O625       Eu645   2.338       .  S
O626        C649   1.298       .  A
O626       Eu642   2.500       .  S
O627        C650   1.284       .  A
O627       Eu919   2.431   1_545  S
O628        C651   1.298       .  A
O628       Eu644   2.498       .  S
O629        C652   1.285       .  A
O629       Eu645   2.438       .  S
O630        C653   1.299       .  A
O630       Eu783   2.505       .  S
O631        C654   1.285       .  A
O631       Eu644   2.435       .  S
O632        C655   1.284       .  A
O633        C656   1.298       .  A
O633       Eu784   2.502       .  S
O634        C655   1.302       .  A
O634       Eu644   2.505       .  S
O635       C1070   1.288   1_554  A
O635       Eu645   2.453       .  S
O636       Eu642   2.458       .  S
O637       C1068   1.302       .  A
O637       Eu643   2.498       .  S
O638        C653   1.287   1_455  A
O639        C652   1.303       .  A
O639       Eu918   2.503       .  S
O640        C649   1.288       .  A
O640       Eu646   2.447       .  S
O641       Eu784   2.507   1_455  S
Eu642       O884   2.440   1_545  S
Eu642       O915   2.503   1_545  S
Eu642       O892   2.366   1_545  S
Eu642       O660   2.341       .  S
Eu642       O648   2.347   1_655  S
Eu643       O745   2.498       .  S
Eu643       O903   2.431       .  S
Eu643       O755   2.334       .  S
Eu643      O1072   2.364       .  S
Eu644       O888   2.450   1_545  S
Eu644       O893   2.368   1_545  S
Eu644       O899   2.353   1_545  S
Eu644       O658   2.366       .  S
Eu645       O768   2.505   1_554  S
Eu645       O647   2.346   1_554  S
Eu645       O936   2.371       .  S
Eu646       O771   2.502   1_554  S
Eu646       O779   2.507   1_654  S
Eu646       O923   2.336   1_544  S
Eu646       O660   2.350       .  S
Eu646       O648   2.369   1_655  S
O647       Eu922   2.336   1_556  S
C654        C720   1.480   1_554  S
C654       O1051   1.302   1_544  A
C655        C695   1.478       .  S
C656       O1049   1.288   1_545  A
H657        O796   0.966       .  S
O658      Eu1057   2.364   1_544  S
O658        H795   0.966   1_554  S
H659        O660   0.964       .  S
O660       Eu921   2.371   1_545  S
C661        C662   1.394       .  A
C661        C666   1.390       .  A
C661        H668   1.083       .  S
C663        C664   1.384       .  A
C663        F670   1.359       .  S
C664        C665   1.392       .  A
C664        H669   1.084       .  S
C666        F667   1.358       .  S
C671        C672   1.390       .  A
C671        C676   1.385       .  A
C671        H678   1.084       .  S
C672        C949   1.413       .  A
C673        C948   1.413   1_545  A
C673        C674   1.386       .  A
C673        F680   1.358       .  S
C674        C675   1.391       .  A
C674        H679   1.084       .  S
C675        C952   1.413   1_545  A
C676        C951   1.413       .  A
C676        F677   1.358       .  S
C681        C682   1.409       .  A
C681        C686   1.384       .  A
C681        H688   1.084       .  S
C682        C683   1.392       .  A
C683        C684   1.388       .  A
C683        F828   1.357   1_554  S
C684        C685   1.409       .  A
C684        H689   1.084       .  S
C685        C686   1.390       .  A
C686        F687   1.357       .  S
F690        C821   1.357       .  S
C691        C696   1.425       .  A
C692        C693   1.394       .  A
C692        H697   1.085       .  S
C693        C694   1.384       .  A
C693        C820   1.450       .  S
C694        H698   1.087       .  S
C695        C696   1.419       .  A
C696        H699   1.083       .  S
C700        C701   1.396       .  A
C700        C705   1.428       .  A
C700        C787   1.476       .  S
C701        C702   1.389       .  A
C701        H706   1.086       .  S
C702        C703   1.381       .  A
C702        C823   1.448       .  S
C703        C704   1.389       .  A
C703        H707   1.086       .  S
C704        C705   1.424       .  A
C704        C759   1.485       .  S
C705        H708   1.083       .  S
C709        C710   1.397       .  A
C709        C714   1.427       .  A
C709        C758   1.477       .  S
C710        C711   1.391       .  A
C710        H715   1.085       .  S
C711        C712   1.382       .  A
C711        C810   1.452       .  S
C712        C713   1.388       .  A
C712        H716   1.086       .  S
C713        C714   1.424       .  A
C713        C790   1.484       .  S
C714        H717   1.083       .  S
C718        C723   1.396       .  A
C718        C794   1.476       .  S
C719        H724   1.083       .  S
C720        C721   1.388       .  A
C721        C722   1.383       .  A
C721        H725   1.087       .  S
C722        C723   1.393       .  A
C722        C813   1.453       .  S
C723        H726   1.085       .  S
C727        C728   1.425       .  A
C727        C732   1.396       .  A
C727        C789   1.477       .  S
C728        C729   1.420       .  A
C728        H733   1.083       .  S
C729        C730   1.389       .  A
C729        C788   1.480       .  S
C730        C731   1.386       .  A
C730        H734   1.087       .  S
C731        C732   1.393       .  A
C731        C800   1.446       .  S
C732        H735   1.085       .  S
C736        C737   1.396       .  A
C736        C741   1.427       .  A
C736        C791   1.476       .  S
C737        C738   1.389       .  A
C737        H742   1.085       .  S
C738        C739   1.382       .  A
C738        C803   1.445       .  S
C739        C740   1.389       .  A
C739        H743   1.086       .  S
C740        C741   1.424       .  A
C740        C757   1.486       .  S
C741        H744   1.083       .  S
O745        C756   1.298       .  A
O746        C757   1.285       .  A
O746      Eu1056   2.440       .  S
O747        C758   1.298       .  A
O747       Eu753   2.501       .  S
O748        C759   1.286       .  A
O749        C759   1.302       .  A
O749       Eu783   2.495       .  S
O750        C758   1.288       .  A
O750      Eu1058   2.450       .  S
O751        C757   1.303       .  A
O752        C756   1.289       .  A
O752       Eu753   2.457       .  S
Eu753       O755   2.348       .  S
Eu753       O761   2.342       .  S
O754       Eu783   2.368       .  S
O754      Eu1056   2.366       .  S
O755      Eu1058   2.368       .  S
H760        O761   0.964       .  S
O761      Eu1058   2.353       .  S
H762        O763   0.964       .  S
O763       Eu783   2.338       .  S
O764        C787   1.298       .  A
O764       Eu780   2.500       .  S
O765        C788   1.284       .  A
O765      Eu1057   2.431   1_545  S
O766        C789   1.298       .  A
O766       Eu782   2.498       .  S
O767        C790   1.285       .  A
O767       Eu783   2.438       .  S
O768        C791   1.299       .  A
O769        C792   1.285       .  A
O769       Eu782   2.435       .  S
O770        C793   1.284       .  A
O771        C794   1.298       .  A
O772        C793   1.302       .  A
O772       Eu782   2.505       .  S
O773        C932   1.288       .  A
O773       Eu783   2.453       .  S
O774       Eu780   2.458       .  S
O775        C930   1.302   1_556  A
O775       Eu781   2.498       .  S
O776        C791   1.287   1_455  A
O777        C790   1.303       .  A
O777      Eu1056   2.503       .  S
O778        C787   1.288       .  A
O778       Eu784   2.447       .  S
Eu780      O1022   2.440   1_545  S
Eu780      O1053   2.503   1_545  S
Eu780      O1030   2.366   1_545  S
Eu780       O798   2.341       .  S
Eu780       O786   2.347   1_655  S
Eu781      O1041   2.431       .  S
Eu781       O934   2.364   1_556  S
Eu782      O1026   2.450   1_545  S
Eu782      O1031   2.368   1_545  S
Eu782      O1037   2.353   1_545  S
Eu782       O796   2.366       .  S
Eu783       O785   2.346       .  S
Eu783      O1074   2.371       .  S
Eu784      O1061   2.336   1_545  S
Eu784       O798   2.350       .  S
Eu784       O786   2.369   1_655  S
O785      Eu1060   2.336       .  S
C792        O913   1.302   1_545  A
C794        O911   1.288   1_546  A
O796       Eu919   2.364   1_545  S
H797        O798   0.964       .  S
O798      Eu1059   2.371   1_545  S
C799        C800   1.394       .  A
C799        C804   1.390       .  A
C799        H806   1.083       .  S
C801        C802   1.384       .  A
C801        F808   1.359       .  S
C802        C803   1.392       .  A
C802        H807   1.084       .  S
C804        F805   1.358       .  S
C809        C810   1.390       .  A
C809        C814   1.385       .  A
C809        H816   1.084       .  S
C810       C1087   1.413       .  A
C811       C1086   1.413   1_545  A
C811        C812   1.386       .  A
C811        F818   1.358       .  S
C812        C813   1.391       .  A
C812        H817   1.084       .  S
C813       C1090   1.413   1_545  A
C814       C1089   1.413       .  A
C814        F815   1.358       .  S
C819        C820   1.409       .  A
C819        C824   1.384       .  A
C819        H826   1.084       .  S
C820        C821   1.392       .  A
C821        C822   1.388       .  A
C822        C823   1.409       .  A
C822        H827   1.084       .  S
C823        C824   1.390       .  A
C824        F825   1.357       .  S
C829        C968   1.397       .  A
C829        C834   1.425       .  A
C829       C1032   1.477       .  S
C830        C967   1.397       .  A
C830        C831   1.394       .  A
C830        H835   1.085       .  S
C831        C832   1.384       .  A
C831        C958   1.450       .  S
C832        C971   1.387       .  A
C832        H836   1.087   1_554  S
C833        C970   1.387       .  A
C833        C834   1.419       .  A
C833       C1069   1.478       .  S
C834        H837   1.083       .  S
C838        C839   1.396       .  A
C838        C843   1.428       .  A
C838        C925   1.476       .  S
C839        C840   1.389       .  A
C839        H844   1.086       .  S
C840        C841   1.381       .  A
C840        C961   1.448       .  S
C841        C842   1.389       .  A
C841        H845   1.086       .  S
C842        C843   1.424       .  A
C842        C897   1.485       .  S
C843        H846   1.083       .  S
C847        C848   1.397       .  A
C847        C852   1.427       .  A
C847        C896   1.477       .  S
C848        C849   1.391       .  A
C848        H853   1.085       .  S
C849        C850   1.382       .  A
C849        C948   1.452       .  S
C850        C851   1.388       .  A
C850        H854   1.086       .  S
C851        C852   1.424       .  A
C851        C928   1.484       .  S
C852        H855   1.083       .  S
C856        C995   1.426       .  A
C856        C861   1.396       .  A
C856        C932   1.476       .  S
C857        C994   1.426       .  A
C857        C996   1.421       .  A
C857        H862   1.083   1_556  S
C858        C995   1.421       .  A
C858        C859   1.388       .  A
C858       C1068   1.480       .  S
C859        C860   1.383       .  A
C859        H863   1.087       .  S
C860        C861   1.393       .  A
C860        C951   1.453       .  S
C861        H864   1.085       .  S
C865        C866   1.425       .  A
C865        C870   1.396       .  A
C865        C927   1.477       .  S
C866        C867   1.420       .  A
C866        H871   1.083       .  S
C867        C868   1.389       .  A
C867        C926   1.480       .  S
C868        C869   1.386       .  A
C868        H872   1.087       .  S
C869        C870   1.393       .  A
C869        C938   1.446       .  S
C870        H873   1.085       .  S
C874        C875   1.396       .  A
C874        C879   1.427       .  A
C874        C929   1.476       .  S
C875        C876   1.389       .  A
C875        H880   1.085       .  S
C876        C877   1.382       .  A
C876        C941   1.445       .  S
C877        C878   1.389       .  A
C877        H881   1.086       .  S
C878        C879   1.424       .  A
C878        C895   1.486       .  S
C879        H882   1.083       .  S
O883        C894   1.298   1_556  A
O883      Eu1057   2.498       .  S
O884        C895   1.285       .  A
O885        C896   1.298       .  A
O885       Eu891   2.501       .  S
O886        C897   1.286       .  A
O887        C897   1.302       .  A
O887       Eu921   2.495       .  S
O888        C896   1.288       .  A
O889        C895   1.303       .  A
O890        C894   1.289       .  A
O890       Eu891   2.457       .  S
Eu891       O893   2.348       .  S
Eu891       O899   2.342       .  S
O892       Eu921   2.368       .  S
O893      Eu1057   2.334   1_554  S
C894        C967   1.477       .  S
H898        O899   0.964       .  S
H900        O901   0.964       .  S
O901       Eu921   2.338       .  S
O902        C925   1.298       .  A
O902       Eu918   2.500       .  S
O903        C926   1.284       .  A
O904        C927   1.298       .  A
O904       Eu920   2.498       .  S
O905        C928   1.285       .  A
O905       Eu921   2.438       .  S
O906        C929   1.299       .  A
O906      Eu1059   2.505       .  S
O907        C930   1.285       .  A
O907       Eu920   2.435       .  S
O908        C931   1.284       .  A
O909        C932   1.298       .  A
O909      Eu1060   2.502       .  S
O910        C931   1.302       .  A
O910       Eu920   2.505       .  S
O911       Eu921   2.453       .  S
O912       Eu918   2.458       .  S
O913       Eu919   2.498       .  S
O914        C929   1.287   1_455  A
O915        C928   1.303       .  A
O916        C925   1.288       .  A
O916       Eu922   2.447       .  S
O917      Eu1060   2.507   1_455  S
Eu918       O936   2.341       .  S
Eu918       O924   2.347   1_655  S
Eu919      O1021   2.498       .  S
Eu919      O1031   2.334       .  S
Eu920       O934   2.366       .  S
Eu921      O1044   2.505   1_554  S
Eu921       O923   2.346   1_554  S
Eu922      O1047   2.502   1_554  S
Eu922      O1055   2.507   1_654  S
Eu922       O936   2.350       .  S
Eu922       O924   2.369   1_655  S
C930        C996   1.480   1_554  S
C931        C971   1.478       .  S
H933       O1072   0.966       .  S
O934       H1071   0.966   1_554  S
H935        O936   0.964       .  S
C937        C938   1.394       .  A
C937        C942   1.390       .  A
C937        H944   1.083       .  S
C939        C940   1.384       .  A
C939        F946   1.359       .  S
C940        C941   1.392       .  A
C940        H945   1.084       .  S
C942        F943   1.358       .  S
C947        C948   1.390       .  A
C947        C952   1.385       .  A
C947        H954   1.084       .  S
C949        C950   1.386       .  A
C949        F956   1.358       .  S
C950        C951   1.391       .  A
C950        H955   1.084       .  S
C952        F953   1.358       .  S
C957        C958   1.409       .  A
C957        C962   1.384       .  A
C957        H964   1.084       .  S
C958        C959   1.392       .  A
C959        C960   1.388       .  A
C959       F1104   1.357   1_554  S
C960        C961   1.409       .  A
C960        H965   1.084       .  S
C961        C962   1.390       .  A
C962        F963   1.357       .  S
F966       C1097   1.357       .  S
C967        C972   1.425       .  A
C968        C969   1.394       .  A
C968        H973   1.085       .  S
C969        C970   1.384       .  A
C969       C1096   1.450       .  S
C970        H974   1.087       .  S
C971        C972   1.419       .  A
C972        H975   1.083       .  S
C976        C977   1.396       .  A
C976        C981   1.428       .  A
C976       C1063   1.476       .  S
C977        C978   1.389       .  A
C977        H982   1.086       .  S
C978        C979   1.381       .  A
C978       C1099   1.448       .  S
C979        C980   1.389       .  A
C979        H983   1.086       .  S
C980        C981   1.424       .  A
C980       C1035   1.485       .  S
C981        H984   1.083       .  S
C985        C986   1.397       .  A
C985        C990   1.427       .  A
C985       C1034   1.477       .  S
C986        C987   1.391       .  A
C986        H991   1.085       .  S
C987        C988   1.382       .  A
C987       C1086   1.452       .  S
C988        C989   1.388       .  A
C988        H992   1.086       .  S
C989        C990   1.424       .  A
C989       C1066   1.484       .  S
C990        H993   1.083       .  S
C994        C999   1.396       .  A
C994       C1070   1.476       .  S
C995       H1000   1.083       .  S
C996        C997   1.388       .  A
C997        C998   1.383       .  A
C997       H1001   1.087       .  S
C998        C999   1.393       .  A
C998       C1089   1.453       .  S
C999       H1002   1.085       .  S
C1003      C1004   1.425       .  A
C1003      C1008   1.396       .  A
C1003      C1065   1.477       .  S
C1004      C1005   1.420       .  A
C1004      H1009   1.083       .  S
C1005      C1006   1.389       .  A
C1005      C1064   1.480       .  S
C1006      C1007   1.386       .  A
C1006      H1010   1.087       .  S
C1007      C1008   1.393       .  A
C1007      C1076   1.446       .  S
C1008      H1011   1.085       .  S
C1012      C1013   1.396       .  A
C1012      C1017   1.427       .  A
C1012      C1067   1.476       .  S
C1013      C1014   1.389       .  A
C1013      H1018   1.085       .  S
C1014      C1015   1.382       .  A
C1014      C1079   1.445       .  S
C1015      C1016   1.389       .  A
C1015      H1019   1.086       .  S
C1016      C1017   1.424       .  A
C1016      C1033   1.486       .  S
C1017      H1020   1.083       .  S
O1021      C1032   1.298       .  A
O1022      C1033   1.285       .  A
O1023      C1034   1.298       .  A
O1023     Eu1029   2.501       .  S
O1024      C1035   1.286       .  A
O1025      C1035   1.302       .  A
O1025     Eu1059   2.495       .  S
O1026      C1034   1.288       .  A
O1027      C1033   1.303       .  A
O1028      C1032   1.289       .  A
O1028     Eu1029   2.457       .  S
Eu1029     O1031   2.348       .  S
Eu1029     O1037   2.342       .  S
O1030     Eu1059   2.368       .  S
H1036      O1037   0.964       .  S
H1038      O1039   0.964       .  S
O1039     Eu1059   2.338       .  S
O1040      C1063   1.298       .  A
O1040     Eu1056   2.500       .  S
O1041      C1064   1.284       .  A
O1042      C1065   1.298       .  A
O1042     Eu1058   2.498       .  S
O1043      C1066   1.285       .  A
O1043     Eu1059   2.438       .  S
O1044      C1067   1.299       .  A
O1045      C1068   1.285       .  A
O1045     Eu1058   2.435       .  S
O1046      C1069   1.284       .  A
O1047      C1070   1.298       .  A
O1048      C1069   1.302       .  A
O1048     Eu1058   2.505       .  S
O1049     Eu1059   2.453       .  S
O1050     Eu1056   2.458       .  S
O1051     Eu1057   2.498       .  S
O1052      C1067   1.287   1_455  A
O1053      C1066   1.303       .  A
O1054      C1063   1.288       .  A
O1054     Eu1060   2.447       .  S
Eu1056     O1074   2.341       .  S
Eu1056     O1062   2.347   1_655  S
Eu1058     O1072   2.366       .  S
Eu1059     O1061   2.346       .  S
Eu1060     O1074   2.350       .  S
Eu1060     O1062   2.369   1_655  S
H1073      O1074   0.964       .  S
C1075      C1076   1.394       .  A
C1075      C1080   1.390       .  A
C1075      H1082   1.083       .  S
C1077      C1078   1.384       .  A
C1077      F1084   1.359       .  S
C1078      C1079   1.392       .  A
C1078      H1083   1.084       .  S
C1080      F1081   1.358       .  S
C1085      C1086   1.390       .  A
C1085      C1090   1.385       .  A
C1085      H1092   1.084       .  S
C1087      C1088   1.386       .  A
C1087      F1094   1.358       .  S
C1088      C1089   1.391       .  A
C1088      H1093   1.084       .  S
C1090      F1091   1.358       .  S
C1095      C1096   1.409       .  A
C1095      C1100   1.384       .  A
C1095      H1102   1.084       .  S
C1096      C1097   1.392       .  A
C1097      C1098   1.388       .  A
C1098      C1099   1.409       .  A
C1098      H1103   1.084       .  S
C1099      C1100   1.390       .  A
C1100      F1101   1.357       .  S
