geometry optimzed in LAMMPS
_audit_creation_date              2020-12-01 
_audit_creation_method            'lammps2cif' 
_symmetry_space_group_name_H-M    'P1' 
_symmetry_Int_Tables_number       1 
_symmetry_cell_setting            triclinic 
loop_ 
_symmetry_equiv_pos_as_xyz 
  x,y,z 
_cell_length_a                    26.73126364 
_cell_length_b                    26.756934522591095 
_cell_length_c                    24.10909076329087 
_cell_angle_alpha                 89.70941150765067 
_cell_angle_beta                  90.23409165980411 
_cell_angle_gamma                 82.08672671771689 
loop_ 
_atom_site_label 
_atom_site_type_symbol 
_atom_site_fract_x 
_atom_site_fract_y 
_atom_site_fract_z 
_atom_site_charge 
C1          C  0.16918937  0.98670173  0.11588405     0.42500
N2          N  0.09115674  0.48510313  0.09690703     0.01400
C3          C  0.49208346  0.39201191  0.85872635    -0.06500
H4          H  0.09920700  0.03549011  0.82302261     0.06900
C5          C  0.47113892  0.15290521  0.93544743    -0.06800
Co6        Co  0.07752130  0.42658378  0.99406930     0.74200
N7          N  0.08162103  0.49428326  0.89590790    -0.26000
Co8        Co  0.50336879  0.00046284  0.89798967     0.74100
C9          C  0.99657800  0.15697578  0.88248816     0.42600
N10         N  0.47915844  0.09744375  0.06701068     0.01000
N11         N  0.49687323  0.07883211  0.90244276     0.01100
N12         N  0.03883910  0.34497503  0.92369756    -0.46900
H13         H  0.19498419  0.44154770  0.03757917     0.06900
N14         N  0.10995663  0.46707437  0.93306206     0.01400
N15         N  0.42508854  0.00637130  0.90264701     0.01100
C16         C  0.34699068  0.50622970  0.88284700     0.42700
N17         N  0.50617965  0.06926313  0.10443902    -0.25500
C18         C  0.04352551  0.33855619  0.06342940    -0.06400
N19         N  0.12179640  0.00031797  0.13460162    -0.46600
N20         N  0.39438881  0.49209229  0.86437417    -0.46800
C21         C  0.51681912  0.33474638  0.11563337     0.42500
N22         N  0.03736340  0.39390411  0.93302846     0.01400
N23         N  0.43469718  0.99723762  0.10441111    -0.25500
N24         N  0.11566311  0.46086017  0.05551679    -0.26000
N25         N  0.40635459  0.02418726  0.06707679     0.01000
H26         H  0.41721150  0.45700978  0.17810065     0.06900
H27         H  0.32137017  0.05091675  0.96152905     0.07000
N28         N  0.01011631  0.42213983  0.89582165    -0.26000
N29         N  0.47272916  0.10315991  0.94403666    -0.25600
N30         N  0.01907718  0.41271941  0.09693780     0.01400
C31         C  0.16273415  0.99438097  0.87806291     0.42800
C32         C  0.02356006  0.09942851  0.14206708    -0.06900
N33         N  0.40064410  0.03047951  0.94419087    -0.25600
H34         H  0.45195522  0.18234784  0.96132138     0.06900
N35         N  0.15888570  0.46603276  0.92384851    -0.46900
H36         H  0.04574725  0.08708746  0.17845056     0.06900
C37         C  0.35357490  0.49775827  0.12294519     0.42600
C38         C  0.16537987  0.46033996  0.06354733    -0.06400
Co39       Co  0.01291350  0.49096825  0.10186688     0.73800
N40         N  0.47734610  0.14635365  0.07663756    -0.46600
C41         C  0.51077989  0.34099400  0.87772460     0.42900
N42         N  0.50340377  0.38210903  0.13438591    -0.46600
Co43       Co  0.43884572  0.06469436  0.00583870     0.73900
C44         C  0.35090883  0.03179240  0.93569164    -0.06900
C45         C  0.11165875  0.01276709  0.85899745    -0.06500
N46         N  0.04334295  0.38823991  0.05554521    -0.26000
N47         N  0.01092133  0.10962544  0.86407603    -0.46700
H48         H  0.46943652  0.40436761  0.82266267     0.06900
C49         C  0.40469644  0.47934465  0.14187777    -0.06900
Cl50       Cl  0.00815349  0.99570894  0.99991992    -0.49900
C51         C  0.00480180  0.15045624  0.12308874     0.42700
H52         H  0.06209782  0.30896399  0.03732784     0.06900
N53         N  0.35744038  0.02551447  0.07665045    -0.46600
C54         C  0.00811047  0.24662976  0.23735165     0.03200
C55         C  0.00814833  0.20038443  0.20982273    -0.13000
C56         C  0.00849699  0.19832128  0.15166369     0.00700
C57         C  0.01082598  0.24248581  0.12078667    -0.11500
C58         C  0.01207030  0.28863996  0.14767933     0.03200
C59         C  0.00966374  0.29063130  0.20573003    -0.10900
H60         H  0.00711182  0.16607781  0.23357610     0.08800
H61         H  0.01163920  0.24087777  0.07587397     0.06300
H62         H  0.00931899  0.32656444  0.22632649     0.06100
C63         C  0.00383360  0.24749770  0.76231494     0.03200
C64         C  0.00108027  0.20292268  0.79248728    -0.13000
C65         C  0.00097375  0.20344851  0.85079715     0.00700
C66         C  0.00419140  0.24884893  0.87872192    -0.11500
C67         C  0.00681095  0.29347867  0.84878457     0.03200
C68         C  0.00637885  0.29259834  0.79074944    -0.10900
H69         H  0.99874949  0.16804989  0.77056751     0.08800
H70         H  0.00449526  0.24954767  0.92367346     0.06300
H71         H  0.00846257  0.32701589  0.76748456     0.06100
C72         C  0.25802493  0.49241011  0.23750469     0.03200
C73         C  0.21372277  0.49170312  0.20613531    -0.13000
C74         C  0.21538486  0.49064014  0.14801460     0.00700
C75         C  0.26143377  0.49224907  0.12093256    -0.11500
C76         C  0.30583762  0.49364901  0.15162085     0.03200
C77         C  0.30414640  0.49272622  0.20975182    -0.10900
H78         H  0.17788204  0.49167048  0.22694712     0.08800
H79         H  0.26276800  0.49242983  0.07599595     0.06300
H80         H  0.33864407  0.49312240  0.23337106     0.06100
C81         C  0.25663284  0.49938099  0.76250638     0.03200
C82         C  0.21117195  0.49837364  0.79097663    -0.13000
C83         C  0.21022118  0.49814826  0.84899526     0.00700
C84         C  0.25493133  0.50004663  0.87892806    -0.11500
C85         C  0.30056950  0.50216141  0.85105260     0.03200
C86         C  0.30134691  0.50134781  0.79277449    -0.10900
H87         H  0.17657035  0.49694905  0.76780484     0.08800
H88         H  0.25411584  0.49995398  0.92388127     0.06300
H89         H  0.33656351  0.50243827  0.77097963     0.06100
C90         C  0.25599663  0.49344791  0.29905020    -0.03300
C91         C  0.28532516  0.02380540  0.32921415    -0.09100
C92         C  0.28342425  0.02489825  0.38708394    -0.16700
C93         C  0.25215730  0.49582432  0.41562136     0.25400
C94         C  0.22261485  0.46566490  0.38609804    -0.18400
C95         C  0.22452210  0.46442386  0.32816484    -0.07300
C96         C  0.25111697  0.49648997  0.47521749    -0.13800
C97         C  0.25169629  0.49708513  0.52516920    -0.13500
C98         C  0.25344682  0.49746190  0.58475614     0.25300
C99         C  0.23054901  0.46219063  0.61510533    -0.18900
C100        C  0.23211474  0.46252942  0.67300107    -0.07400
C101        C  0.25686628  0.49801573  0.70119945    -0.02900
C102        C  0.28026756  0.03298018  0.67047316    -0.08800
C103        C  0.27837052  0.03280459  0.61249336    -0.16400
H104        H  0.30927315  0.04721633  0.30804820     0.11800
H105        H  0.30636123  0.04845461  0.40958604     0.11000
H106        H  0.19841797  0.44287025  0.40783830     0.11000
H107        H  0.20195558  0.44019558  0.30623239     0.11500
H108        H  0.21138129  0.43453508  0.59403927     0.11600
H109        H  0.21414761  0.43497098  0.69583862     0.11500
H110        H  0.29913401  0.06094792  0.69134226     0.11700
H111        H  0.29621960  0.06025883  0.58931570     0.10500
C112        C  0.00386422  0.24764684  0.70105743    -0.03300
C113        C  0.04176614  0.26821283  0.67202200    -0.09100
C114        C  0.04075909  0.27053346  0.61411477    -0.16700
C115        C  0.50160709  0.25278520  0.58468172     0.25400
C116        C  0.46371347  0.23221824  0.61336174    -0.18400
C117        C  0.46495402  0.22941233  0.67131673    -0.07300
C118        C  0.50078799  0.25499779  0.52505705    -0.13800
C119        C  0.50090732  0.25558977  0.47507148    -0.13500
C120        C  0.50189940  0.25430677  0.41544416     0.25300
C121        C  0.47354042  0.22245338  0.38682176    -0.18900
C122        C  0.47550544  0.21994258  0.32896848    -0.07400
C123        C  0.00604995  0.24921462  0.29890586    -0.03400
C124        C  0.03429823  0.28129794  0.32814159    -0.08800
C125        C  0.03214743  0.28384830  0.38600595    -0.16400
H126        H  0.07214062  0.28238821  0.69423777     0.11800
H127        H  0.07037249  0.28630421  0.59234176     0.11000
H128        H  0.43325696  0.21837819  0.59094418     0.11000
H129        H  0.43510812  0.21393386  0.69299583     0.11500
H130        H  0.44996628  0.19946201  0.40924195     0.11600
H131        H  0.45265219  0.19552274  0.30775140     0.11500
H132        H  0.05871738  0.30381720  0.30639133     0.11700
H133        H  0.05445165  0.30844503  0.40777714     0.10500
C134        C  0.16918840  0.48670264  0.11588514     0.42500
N135        N  0.09115766  0.98510196  0.09690645     0.01400
C136        C  0.49208160  0.89201211  0.85872643    -0.06500
H137        H  0.09920576  0.53548851  0.82302041     0.06900
C138        C  0.47113589  0.65290499  0.93544917    -0.06800
Co139      Co  0.07752159  0.92658274  0.99406901     0.74200
N140        N  0.08162210  0.99428252  0.89590811    -0.26000
Co141      Co  0.50336771  0.50046281  0.89799113     0.74100
C142        C  0.99657506  0.65697603  0.88248900     0.42600
N143        N  0.47915635  0.59744340  0.06701254     0.01000
N144        N  0.49687114  0.57883206  0.90244458     0.01100
N145        N  0.03883724  0.84497474  0.92369805    -0.46900
H146        H  0.19498503  0.94154625  0.03757841     0.06900
N147        N  0.10995753  0.96707292  0.93306178     0.01400
N148        N  0.42508749  0.50637026  0.90264905     0.01100
C149        C  0.34699173  0.00623024  0.88284527     0.42700
N150        N  0.50617795  0.56926306  0.10444082    -0.25500
C151        C  0.04352378  0.83855590  0.06342902    -0.06400
N152        N  0.12179538  0.50031867  0.13460267    -0.46600
N153        N  0.39438983  0.99209288  0.86437239    -0.46800
C154        C  0.51681605  0.83474694  0.11563212     0.42500
N155        N  0.03736311  0.89390375  0.93302827     0.01400
N156        N  0.43469677  0.49723590  0.10441246    -0.25500
N157        N  0.11566391  0.96085860  0.05551640    -0.26000
N158        N  0.40635388  0.52418551  0.06707847     0.01000
H159        H  0.41721144  0.95701351  0.17810069     0.06900
H160        H  0.32136900  0.55091595  0.96153088     0.07000
N161        N  0.01011634  0.92213981  0.89582149    -0.26000
N162        N  0.47272685  0.60315958  0.94403848    -0.25600
N163        N  0.01907685  0.91271939  0.09693742     0.01400
C164        C  0.16273310  0.49438047  0.87806153     0.42800
C165        C  0.02355806  0.59942888  0.14206757    -0.06900
N166        N  0.40064294  0.53047828  0.94419296    -0.25600
H167        H  0.45195193  0.68234732  0.96132299     0.06900
N168        N  0.15888668  0.96603189  0.92384884    -0.46900
H169        H  0.04574560  0.58708803  0.17845087     0.06900
C170        C  0.35357522  0.99776249  0.12294487     0.42600
C171        C  0.16538075  0.96033846  0.06354667    -0.06400
Co172      Co  0.01291431  0.99096817  0.10186636     0.73800
N173        N  0.47734393  0.64635338  0.07663897    -0.46600
C174        C  0.51077644  0.84099406  0.87772558     0.42900
N175        N  0.50340176  0.88210979  0.13438455    -0.46600
Co176      Co  0.43884415  0.56469345  0.00584060     0.73900
C177        C  0.35090769  0.53179139  0.93569359    -0.06900
C178        C  0.11165761  0.51276654  0.85899613    -0.06500
N179        N  0.04334241  0.88823949  0.05554494    -0.26000
N180        N  0.01091897  0.60962573  0.86407680    -0.46700
H181        H  0.46943439  0.90436785  0.82266348     0.06900
C182        C  0.40469658  0.97934796  0.14187720    -0.06900
Cl183      Cl  0.00815254  0.49570910  0.99992039    -0.49900
C184        C  0.00479938  0.65045649  0.12308917     0.42700
H185        H  0.06209553  0.80896340  0.03732750     0.06900
N186        N  0.35743974  0.52551133  0.07665158    -0.46600
C187        C  0.00810953  0.74663021  0.23735167     0.03200
C188        C  0.00814752  0.70038481  0.20982279    -0.13000
C189        C  0.00849475  0.69832168  0.15166378     0.00700
C190        C  0.01082291  0.74248622  0.12078652    -0.11500
C191        C  0.01206761  0.78864040  0.14767899     0.03200
C192        C  0.00966164  0.79063183  0.20572972    -0.10900
H193        H  0.00711228  0.66607802  0.23357610     0.08800
H194        H  0.01163548  0.74087813  0.07587393     0.06300
H195        H  0.00931667  0.82656508  0.22632583     0.06100
C196        C  0.00383174  0.74749785  0.76231578     0.03200
C197        C  0.00107846  0.70292279  0.79248822    -0.13000
C198        C  0.00097080  0.70344876  0.85079807     0.00700
C199        C  0.00418782  0.74884923  0.87872295    -0.11500
C200        C  0.00680752  0.79347892  0.84878570     0.03200
C201        C  0.00637575  0.79259864  0.79075062    -0.10900
H202        H  0.99874889  0.66804975  0.77056862     0.08800
H203        H  0.00449133  0.74954800  0.92367446     0.06300
H204        H  0.00845915  0.82701635  0.76748615     0.06100
C205        C  0.25802479  0.99241204  0.23750357     0.03200
C206        C  0.21372327  0.99170277  0.20613396    -0.13000
C207        C  0.21538564  0.99064022  0.14801333     0.00700
C208        C  0.26143440  0.99225100  0.12093153    -0.11500
C209        C  0.30583779  0.99365300  0.15162020     0.03200
C210        C  0.30414611  0.99273082  0.20975124    -0.10900
H211        H  0.17788270  0.99166809  0.22694575     0.08800
H212        H  0.26276887  0.99243150  0.07599492     0.06300
H213        H  0.33864326  0.99312909  0.23337107     0.06100
C214        C  0.25663219  0.99938021  0.76250575     0.03200
C215        C  0.21117163  0.99837454  0.79097742    -0.13000
C216        C  0.21022192  0.99814864  0.84899602     0.00700
C217        C  0.25493256  0.00004653  0.87892792    -0.11500
C218        C  0.30057035  0.00216087  0.85105154     0.03200
C219        C  0.30134699  0.00134613  0.79277332    -0.10900
H220        H  0.17656900  0.99695165  0.76780678     0.08800
H221        H  0.25411768  0.99995412  0.92388124     0.06300
H222        H  0.33656373  0.00243528  0.77097807     0.06100
C223        C  0.25599559  0.99344928  0.29904888    -0.03300
C224        C  0.28533215  0.52379882  0.32921488    -0.09100
C225        C  0.28343302  0.52489152  0.38708471    -0.16700
C226        C  0.25215303  0.99582566  0.41561979     0.25400
C227        C  0.22261672  0.96566078  0.38609569    -0.18400
C228        C  0.22452547  0.96441988  0.32816256    -0.07300
C229        C  0.25111153  0.99649101  0.47521589    -0.13800
C230        C  0.25169065  0.99708584  0.52516762    -0.13500
C231        C  0.25344198  0.99746226  0.58475456     0.25300
C232        C  0.23052948  0.96220211  0.61510428    -0.18900
C233        C  0.23209696  0.96253998  0.67299997    -0.07400
C234        C  0.25686408  0.99801485  0.70119824    -0.02900
C235        C  0.28025543  0.53299215  0.67047530    -0.08800
C236        C  0.27835940  0.53281613  0.61249549    -0.16400
H237        H  0.30928366  0.54720607  0.30804855     0.11800
H238        H  0.30637459  0.54844364  0.40958619     0.11000
H239        H  0.19842337  0.94286184  0.40783531     0.11000
H240        H  0.20196358  0.94018786  0.30622934     0.11500
H241        H  0.21134943  0.93455556  0.59403870     0.11600
H242        H  0.21411908  0.93498937  0.69583734     0.11500
H243        H  0.29910980  0.56096837  0.69134534     0.11700
H244        H  0.29619690  0.56027902  0.58931826     0.10500
C245        C  0.00386409  0.74764683  0.70105799    -0.03300
C246        C  0.04175885  0.76822551  0.67202367    -0.09100
C247        C  0.04075285  0.77054597  0.61411649    -0.16700
C248        C  0.50161001  0.75278375  0.58468231     0.25400
C249        C  0.46372446  0.73220239  0.61336060    -0.18400
C250        C  0.46496367  0.72939687  0.67131563    -0.07300
C251        C  0.50079176  0.75499706  0.52505773    -0.13800
C252        C  0.50091112  0.75558981  0.47507217    -0.13500
C253        C  0.50190213  0.75430718  0.41544479     0.25300
C254        C  0.47354794  0.72244883  0.38682341    -0.18900
C255        C  0.47551155  0.71993863  0.32897010    -0.07400
C256        C  0.00605017  0.74921491  0.29890614    -0.03400
C257        C  0.03429535  0.78130161  0.32814112    -0.08800
C258        C  0.03214548  0.78385174  0.38600556    -0.16400
H259        H  0.07212720  0.78241097  0.69424032     0.11800
H260        H  0.07036047  0.78632690  0.59234456     0.11000
H261        H  0.43327491  0.71835113  0.59094157     0.11000
H262        H  0.43512361  0.71390763  0.69299306     0.11500
H263        H  0.44997853  0.69945340  0.40924443     0.11600
H264        H  0.45266141  0.69551495  0.30775413     0.11500
H265        H  0.05871131  0.80382356  0.30639049     0.11700
H266        H  0.05444723  0.80845138  0.40777605     0.10500
C267        C  0.66918936  0.98670079  0.11588400     0.42500
N268        N  0.59115688  0.48510280  0.09690740     0.01400
C269        C  0.99208324  0.39201201  0.85872616    -0.06500
H270        H  0.59920731  0.03548974  0.82302238     0.06900
C271        C  0.97113868  0.15290525  0.93544797    -0.06800
Co272      Co  0.57752136  0.42658347  0.99406970     0.74200
N273        N  0.58162103  0.49428298  0.89590854    -0.26000
Co274      Co  0.00336882  0.00046293  0.89799015     0.74100
C275        C  0.49657816  0.15697575  0.88248762     0.42600
N276        N  0.97915823  0.09744375  0.06701125     0.01000
N277        N  0.99687306  0.07883215  0.90244334     0.01100
N278        N  0.53883930  0.34497480  0.92369768    -0.46900
H279        H  0.69498434  0.44154749  0.03757922     0.06900
N280        N  0.60995664  0.46707403  0.93306249     0.01400
N281        N  0.92508858  0.00637114  0.90264751     0.01100
C282        C  0.84699062  0.50622936  0.88284650     0.42700
N283        N  0.00617959  0.06926317  0.10443956    -0.25500
C284        C  0.54352564  0.33855591  0.06342975    -0.06400
N285        N  0.62179641  0.00031734  0.13460146    -0.46600
N286        N  0.89438878  0.49209220  0.86437356    -0.46800
C287        C  0.01681888  0.33474668  0.11563297     0.42500
N288        N  0.53736339  0.39390385  0.93302886     0.01400
N289        N  0.93469731  0.99723732  0.10441144    -0.25500
N290        N  0.61566322  0.46085982  0.05551713    -0.26000
N291        N  0.90635466  0.02418688  0.06707728     0.01000
H292        H  0.91721150  0.45701062  0.17810049     0.06900
H293        H  0.82136985  0.05091642  0.96152971     0.07000
N294        N  0.51011630  0.42213965  0.89582207    -0.26000
N295        N  0.97272897  0.10315983  0.94403716    -0.25600
N296        N  0.51907734  0.41271912  0.09693825     0.01400
C297        C  0.66273424  0.99438053  0.87806280     0.42800
C298        C  0.52355986  0.09942840  0.14206683    -0.06900
N299        N  0.90064398  0.03047930  0.94419141    -0.25600
H300        H  0.95195514  0.18234756  0.96132164     0.06900
N301        N  0.65888575  0.46603238  0.92384886    -0.46900
H302        H  0.54574669  0.08708733  0.17845035     0.06900
C303        C  0.85357482  0.49775892  0.12294511     0.42600
C304        C  0.66537997  0.46033973  0.06354752    -0.06400
Co305      Co  0.51291366  0.49096795  0.10186741     0.73800
N306        N  0.97734607  0.14635365  0.07663791    -0.46600
C307        C  0.01077953  0.34099412  0.87772464     0.42900
N308        N  0.00340354  0.38210935  0.13438545    -0.46600
Co309      Co  0.93884559  0.06469421  0.00583924     0.73900
C310        C  0.85090881  0.03179202  0.93569211    -0.06900
C311        C  0.61165890  0.01276672  0.85899717    -0.06500
N312        N  0.54334305  0.38823963  0.05554560    -0.26000
N313        N  0.51092146  0.10962534  0.86407544    -0.46700
H314        H  0.96943620  0.40436761  0.82266266     0.06900
C315        C  0.90469638  0.47934525  0.14187754    -0.06900
Cl316      Cl  0.50815341  0.99570891  0.99991948    -0.49900
C317        C  0.50480155  0.15045614  0.12308858     0.42700
H318        H  0.56209794  0.30896370  0.03732814     0.06900
N319        N  0.85744042  0.02551358  0.07665072    -0.46600
C320        C  0.50811034  0.24662933  0.23735172     0.03200
C321        C  0.50814781  0.20038412  0.20982276    -0.13000
C322        C  0.50849664  0.19832110  0.15166374     0.00700
C323        C  0.51082588  0.24248561  0.12078683    -0.11500
C324        C  0.51207042  0.28863964  0.14767962     0.03200
C325        C  0.50966396  0.29063087  0.20573029    -0.10900
H326        H  0.50711097  0.16607770  0.23357598     0.08800
H327        H  0.51163916  0.24087765  0.07587437     0.06300
H328        H  0.50931954  0.32656372  0.22632681     0.06100
C329        C  0.50383375  0.24749789  0.76231464     0.03200
C330        C  0.50108035  0.20292281  0.79248680    -0.13000
C331        C  0.50097403  0.20344846  0.85079665     0.00700
C332        C  0.50419185  0.24884879  0.87872156    -0.11500
C333        C  0.50681141  0.29347859  0.84878436     0.03200
C334        C  0.50637926  0.29259842  0.79074921    -0.10900
H335        H  0.49874932  0.16805018  0.77056691     0.08800
H336        H  0.50449579  0.24954741  0.92367306     0.06300
H337        H  0.50846306  0.32701591  0.76748443     0.06100
C338        C  0.75802505  0.49240983  0.23750466     0.03200
C339        C  0.71372293  0.49170277  0.20613531    -0.13000
C340        C  0.71538500  0.49064009  0.14801462     0.00700
C341        C  0.76143378  0.49224943  0.12093255    -0.11500
C342        C  0.80583758  0.49364947  0.15162082     0.03200
C343        C  0.80414645  0.49272637  0.20975180    -0.10900
H344        H  0.67788243  0.49166989  0.22694696     0.08800
H345        H  0.76276794  0.49243038  0.07599612     0.06300
H346        H  0.83864391  0.49312261  0.23337088     0.06100
C347        C  0.75663211  0.49938116  0.76250631     0.03200
C348        C  0.71117139  0.49837386  0.79097690    -0.13000
C349        C  0.71022105  0.49814799  0.84899548     0.00700
C350        C  0.75493137  0.50004596  0.87892799    -0.11500
C351        C  0.80056937  0.50216089  0.85105223     0.03200
C352        C  0.80134642  0.50134759  0.79277411    -0.10900
H353        H  0.67656977  0.49694974  0.76780554     0.08800
H354        H  0.75411615  0.49995304  0.92388093     0.06300
H355        H  0.83656273  0.50243807  0.77097914     0.06100
C356        C  0.75599662  0.49344749  0.29905025    -0.03300
C357        C  0.78532521  0.02380467  0.32921391    -0.09100
C358        C  0.78342435  0.02489784  0.38708370    -0.16700
C359        C  0.75215602  0.49582464  0.41562134     0.25400
C360        C  0.72261384  0.46566512  0.38609786    -0.18400
C361        C  0.72452173  0.46442367  0.32816468    -0.07300
C362        C  0.75111493  0.49649083  0.47521739    -0.13800
C363        C  0.75169388  0.49708633  0.52516908    -0.13500
C364        C  0.75344444  0.49746318  0.58475594     0.25300
C365        C  0.73054529  0.46219293  0.61510517    -0.18900
C366        C  0.73211158  0.46253131  0.67300088    -0.07400
C367        C  0.75686494  0.49801627  0.70119925    -0.02900
C368        C  0.78026819  0.03297932  0.67047344    -0.08800
C369        C  0.77837112  0.03280395  0.61249362    -0.16400
H370        H  0.80927330  0.04721557  0.30804773     0.11800
H371        H  0.80636130  0.04845423  0.40958563     0.11000
H372        H  0.69841650  0.44287063  0.40783793     0.11000
H373        H  0.70195544  0.44019550  0.30623221     0.11500
H374        H  0.71137617  0.43453825  0.59403913     0.11600
H375        H  0.71414361  0.43497367  0.69583828     0.11500
H376        H  0.79913476  0.06094704  0.69134257     0.11700
H377        H  0.79622014  0.06025808  0.58931621     0.10500
C378        C  0.50386407  0.24764722  0.70105724    -0.03300
C379        C  0.54176725  0.26821105  0.67202168    -0.09100
C380        C  0.54076011  0.27053173  0.61411445    -0.16700
C381        C  0.00160751  0.25278464  0.58468184     0.25400
C382        C  0.96371526  0.23221535  0.61336169    -0.18400
C383        C  0.96495566  0.22940955  0.67131670    -0.07300
C384        C  0.00078838  0.25499740  0.52505719    -0.13800
C385        C  0.00090765  0.25558968  0.47507161    -0.13500
C386        C  0.00189956  0.25430695  0.41544418     0.25300
C387        C  0.97354174  0.22245247  0.38682180    -0.18900
C388        C  0.97550668  0.21994190  0.32896851    -0.07400
C389        C  0.50604991  0.24921412  0.29890594    -0.03400
C390        C  0.53429942  0.28129632  0.32814164    -0.08800
C391        C  0.53214857  0.28384679  0.38600598    -0.16400
H392        H  0.57214293  0.28238473  0.69423737     0.11800
H393        H  0.57037438  0.28630060  0.59234131     0.11000
H394        H  0.93325976  0.21837344  0.59094395     0.11000
H395        H  0.93511086  0.21392940  0.69299552     0.11500
H396        H  0.94996875  0.19946028  0.40924199     0.11600
H397        H  0.95265409  0.19552104  0.30775145     0.11500
H398        H  0.55871926  0.30381445  0.30639145     0.11700
H399        H  0.55445387  0.30844281  0.40777722     0.10500
C400        C  0.66918854  0.48670250  0.11588524     0.42500
N401        N  0.59115758  0.98510165  0.09690615     0.01400
C402        C  0.99208184  0.89201227  0.85872675    -0.06500
H403        H  0.59920580  0.53548830  0.82302146     0.06900
C404        C  0.97113579  0.65290515  0.93544873    -0.06800
Co405      Co  0.57752130  0.92658253  0.99406871     0.74200
N406        N  0.58162211  0.99428220  0.89590776    -0.26000
Co407      Co  0.00336767  0.50046299  0.89799055     0.74100
C408        C  0.49657502  0.65697579  0.88248930     0.42600
N409        N  0.97915607  0.59744365  0.06701195     0.01000
N410        N  0.99687102  0.57883227  0.90244398     0.01100
N411        N  0.53883678  0.84497463  0.92369790    -0.46900
H412        H  0.69498477  0.94154529  0.03757840     0.06900
N413        N  0.60995742  0.96707258  0.93306150     0.01400
N414        N  0.92508742  0.50637036  0.90264835     0.01100
C415        C  0.84699179  0.00622986  0.88284573     0.42700
N416        N  0.00617773  0.56926331  0.10444021    -0.25500
C417        C  0.54352322  0.83855584  0.06342876    -0.06400
N418        N  0.62179554  0.50031846  0.13460291    -0.46600
N419        N  0.89438998  0.99209263  0.86437289    -0.46800
C420        C  0.01681663  0.83474692  0.11563238     0.42500
N421        N  0.53736275  0.89390367  0.93302800     0.01400
N422        N  0.93469663  0.49723621  0.10441193    -0.25500
N423        N  0.61566373  0.96085821  0.05551613    -0.26000
N424        N  0.90635369  0.52418570  0.06707791     0.01000
H425        H  0.91721156  0.95701264  0.17810028     0.06900
H426        H  0.82136877  0.55091554  0.96153052     0.07000
N427        N  0.51011615  0.92213971  0.89582119    -0.26000
N428        N  0.97272663  0.60315983  0.94403792    -0.25600
N429        N  0.51907640  0.91271939  0.09693705     0.01400
C430        C  0.66273309  0.49438022  0.87806204     0.42800
C431        C  0.52355836  0.59942867  0.14206813    -0.06900
N432        N  0.90064281  0.53047830  0.94419233    -0.25600
H433        H  0.95195171  0.68234773  0.96132284     0.06900
N434        N  0.65888661  0.96603148  0.92384870    -0.46900
H435        H  0.54574590  0.58708787  0.17845137     0.06900
C436        C  0.85357533  0.99776129  0.12294485     0.42600
C437        C  0.66538063  0.96033768  0.06354652    -0.06400
Co438      Co  0.51291417  0.99096817  0.10186594     0.73800
N439        N  0.97734355  0.64635362  0.07663847    -0.46600
C440        C  0.01077682  0.84099423  0.87772571     0.42900
N441        N  0.00340226  0.88210972  0.13438487    -0.46600
Co442      Co  0.93884395  0.56469361  0.00583998     0.73900
C443        C  0.85090761  0.53179111  0.93569306    -0.06900
C444        C  0.61165759  0.51276641  0.85899675    -0.06500
N445        N  0.54334194  0.88823940  0.05554461    -0.26000
N446        N  0.51091894  0.60962551  0.86407723    -0.46700
H447        H  0.96943440  0.90436813  0.82266362     0.06900
C448        C  0.90469676  0.97934709  0.14187733    -0.06900
Cl449      Cl  0.50815265  0.49570885  0.99992093    -0.49900
C450        C  0.50479976  0.65045631  0.12308963     0.42700
H451        H  0.56209500  0.80896327  0.03732728     0.06900
N452        N  0.85743956  0.52551172  0.07665127    -0.46600
C453        C  0.50810957  0.74663046  0.23735183     0.03200
C454        C  0.50814792  0.70038489  0.20982311    -0.13000
C455        C  0.50849509  0.69832158  0.15166411     0.00700
C456        C  0.51082291  0.74248612  0.12078667    -0.11500
C457        C  0.51206729  0.78864047  0.14767894     0.03200
C458        C  0.50966131  0.79063206  0.20572967    -0.10900
H459        H  0.50711295  0.66607798  0.23357666     0.08800
H460        H  0.51163543  0.74087790  0.07587393     0.06300
H461        H  0.50931607  0.82656556  0.22632573     0.06100
C462        C  0.50383179  0.74749739  0.76231588     0.03200
C463        C  0.50107844  0.70292239  0.79248841    -0.13000
C464        C  0.50097061  0.70344852  0.85079828     0.00700
C465        C  0.50418743  0.74884909  0.87872303    -0.11500
C466        C  0.50680718  0.79347871  0.84878566     0.03200
C467        C  0.50637567  0.79259827  0.79075058    -0.10900
H468        H  0.49874896  0.66804928  0.77056885     0.08800
H469        H  0.50449081  0.74954798  0.92367457     0.06300
H470        H  0.50845917  0.82701590  0.76748602     0.06100
C471        C  0.75802487  0.99241081  0.23750358     0.03200
C472        C  0.71372334  0.99170158  0.20613395    -0.13000
C473        C  0.71538571  0.99063896  0.14801331     0.00700
C474        C  0.76143454  0.99224955  0.12093151    -0.11500
C475        C  0.80583795  0.99365151  0.15162020     0.03200
C476        C  0.80414624  0.99272938  0.20975124    -0.10900
H477        H  0.67788265  0.99166708  0.22694578     0.08800
H478        H  0.76276902  0.99243006  0.07599484     0.06300
H479        H  0.83864342  0.99312767  0.23337109     0.06100
C480        C  0.75663264  0.99937931  0.76250593     0.03200
C481        C  0.71117201  0.99837374  0.79097744    -0.13000
C482        C  0.71022213  0.99814807  0.84899602     0.00700
C483        C  0.75493264  0.00004609  0.87892806    -0.11500
C484        C  0.80057051  0.00216032  0.85105181     0.03200
C485        C  0.80134734  0.00134533  0.79277361    -0.10900
H486        H  0.67656964  0.99695081  0.76780683     0.08800
H487        H  0.75411762  0.99995386  0.92388113     0.06300
H488        H  0.83656395  0.00243442  0.77097857     0.06100
C489        C  0.75599564  0.99344839  0.29904885    -0.03300
C490        C  0.78533203  0.52379837  0.32921510    -0.09100
C491        C  0.78343226  0.52489141  0.38708491    -0.16700
C492        C  0.75215314  0.99582536  0.41561979     0.25400
C493        C  0.72261677  0.96566036  0.38609590    -0.18400
C494        C  0.72452550  0.96441919  0.32816277    -0.07300
C495        C  0.75111179  0.99649086  0.47521594    -0.13800
C496        C  0.75169103  0.99708563  0.52516769    -0.13500
C497        C  0.75344246  0.99746181  0.58475469     0.25300
C498        C  0.73052992  0.96220162  0.61510426    -0.18900
C499        C  0.73209745  0.96253930  0.67299998    -0.07400
C500        C  0.75686466  0.99801399  0.70119840    -0.02900
C501        C  0.78025527  0.53299180  0.67047505    -0.08800
C502        C  0.77835873  0.53281610  0.61249525    -0.16400
H503        H  0.80928369  0.54720531  0.30804902     0.11800
H504        H  0.80637379  0.54844368  0.40958652     0.11000
H505        H  0.69842350  0.94286157  0.40783572     0.11000
H506        H  0.70196349  0.94018697  0.30622965     0.11500
H507        H  0.71134989  0.93455537  0.59403871     0.11600
H508        H  0.71411944  0.93498861  0.69583715     0.11500
H509        H  0.79911088  0.56096688  0.69134497     0.11700
H510        H  0.79619742  0.56027837  0.58931798     0.10500
C511        C  0.50386433  0.74764628  0.70105809    -0.03300
C512        C  0.54175995  0.76822372  0.67202393    -0.09100
C513        C  0.54075398  0.77054444  0.61411675    -0.16700
C514        C  0.00160967  0.75278372  0.58468217     0.25400
C515        C  0.96372495  0.73220115  0.61336057    -0.18400
C516        C  0.96496421  0.72939595  0.67131561    -0.07300
C517        C  0.00079144  0.75499669  0.52505756    -0.13800
C518        C  0.00091087  0.75558925  0.47507201    -0.13500
C519        C  0.00190203  0.75430658  0.41544466     0.25300
C520        C  0.97354757  0.72244856  0.38682318    -0.18900
C521        C  0.97551122  0.71993843  0.32896985    -0.07400
C522        C  0.50605019  0.74921535  0.29890625    -0.03400
C523        C  0.53429506  0.78130242  0.32814113    -0.08800
C524        C  0.53214524  0.78385263  0.38600556    -0.16400
H525        H  0.57212872  0.78240805  0.69424065     0.11800
H526        H  0.57036233  0.78632448  0.59234493     0.11000
H527        H  0.93327610  0.71834873  0.59094162     0.11000
H528        H  0.93512468  0.71390565  0.69299317     0.11500
H529        H  0.94997787  0.69945332  0.40924407     0.11600
H530        H  0.95266092  0.69551510  0.30775385     0.11500
H531        H  0.55871085  0.80382465  0.30639034     0.11700
H532        H  0.55444674  0.80845249  0.40777599     0.10500
loop_ 
_geom_bond_atom_site_label_1 
_geom_bond_atom_site_label_2 
_geom_bond_distance 
_geom_bond_site_symmetry_2 
_ccdc_geom_bond_type 
C1           N19   1.349   1_565  A
C1          C171   1.459       .  S
C1          C207   1.471       .  S
N2           N24   1.319       .  A
N2          N152   1.324       .  A
N2          Co39   2.080       .  S
C3          N294   1.339       .  A
C3           C41   1.458       .  S
C3           H48   1.081       .  S
H4           C45   1.081       .  S
C5           N29   1.341       .  A
C5          C275   1.460       .  S
C5           H34   1.081       .  S
Co6          N24   2.082   1_556  S
Co6          N14   2.084       .  S
Co6          N46   2.083   1_556  S
Co6          N22   2.084       .  S
Co6        Cl183   2.437       .  S
N7          C178   1.339       .  A
N7           N14   1.320       .  A
N7         Co407   2.076       .  S
Co8          N11   2.083       .  S
Co8          N15   2.080       .  S
Co8         N406   2.076   1_545  S
Co8         N427   2.079   1_545  S
Co8        Cl316   2.462   1_545  S
C9           N47   1.350   1_655  A
C9           C65   1.475   1_655  S
C9          C271   1.460       .  S
N10          N17   1.320       .  A
N10          N40   1.325       .  A
N10         Co43   2.089       .  S
N11          N29   1.320       .  A
N11         N313   1.325       .  A
N12         C307   1.349       .  A
N12          N22   1.325       .  A
H13          C38   1.081       .  S
N14          N35   1.324       .  A
N15          N33   1.320       .  A
N15         N153   1.325   1_545  A
C16          N20   1.349       .  A
C16          C85   1.473       .  S
C16         C177   1.459       .  S
N17         C298   1.341       .  A
N17        Co438   2.079   1_545  S
C18          N46   1.341       .  A
C18         C287   1.460       .  S
C18          H52   1.081       .  S
N19         N135   1.324   1_545  A
N20         N148   1.325       .  A
C21          N42   1.349       .  A
C21         C284   1.460       .  S
C21         C324   1.473       .  S
N22          N28   1.320       .  A
N23         C182   1.340       .  A
N23          N25   1.320   1_565  A
N23        Co438   2.076       .  S
N24          C38   1.340       .  A
N25          N53   1.324       .  A
N25         Co43   2.089       .  S
H26          C49   1.081       .  S
H27          C44   1.081       .  S
N28         C269   1.339   1_455  A
N28        Co407   2.079       .  S
N29         Co43   2.086   1_556  S
N30          N46   1.319       .  A
N30         N308   1.323       .  A
N30         Co39   2.081       .  S
C31         N168   1.348       .  A
C31          C45   1.458   1_565  S
C31         C216   1.468       .  S
C32         N283   1.341       .  A
C32          C51   1.459       .  S
C32          H36   1.081       .  S
N33          C44   1.340       .  A
N33         Co43   2.085   1_556  S
N35         C164   1.348       .  A
C37         N186   1.350       .  A
C37          C49   1.458       .  S
C37          C76   1.471       .  S
C38         C134   1.459       .  S
Co39        N416   2.079       .  S
Co39        N422   2.076   1_455  S
Co39       Cl183   2.462   1_554  S
N40         C317   1.350       .  A
C41         N278   1.349       .  A
C41         C333   1.470       .  S
N42         N296   1.323       .  A
Co43       Cl316   2.434   1_544  S
C44         C149   1.459       .  S
C45         N140   1.339   1_545  A
N47         N277   1.325   1_455  A
C49         N156   1.340       .  A
Cl50       Co139   2.437       .  S
Cl50       Co274   2.462   1_565  S
Cl50       Co172   2.462   1_556  S
Cl50       Co309   2.434   1_466  S
C51         N306   1.350   1_455  A
C51          C56   1.472       .  S
N53         C170   1.350   1_545  A
C54         C123   1.487       .  S
C54          C55   1.407       .  A
C54          C59   1.405       .  A
C55          H60   1.083       .  S
C55          C56   1.404       .  A
C56          C57   1.402       .  A
C57          H61   1.084       .  S
C57          C58   1.402       .  A
C58         C287   1.473       .  S
C58          C59   1.402       .  A
C59          H62   1.083       .  S
C63         C112   1.477       .  S
C63          C64   1.405       .  A
C63          C68   1.401       .  A
C64          H69   1.084   1_455  S
C64          C65   1.406       .  A
C65          C66   1.405       .  A
C66          H70   1.084       .  S
C66          C67   1.402       .  A
C67         C307   1.470       .  S
C67          C68   1.400       .  A
C68          H71   1.084       .  S
C72          C90   1.485       .  S
C72          C73   1.405       .  A
C72          C77   1.406       .  A
C73          H78   1.083       .  S
C73          C74   1.402       .  A
C74         C134   1.471       .  S
C74          C75   1.402       .  A
C75          H79   1.084       .  S
C75          C76   1.401       .  A
C76          C77   1.403       .  A
C77          H80   1.083       .  S
C81         C101   1.479       .  S
C81          C82   1.402       .  A
C81          C86   1.405       .  A
C82          H87   1.084       .  S
C82          C83   1.399       .  A
C83         C164   1.468       .  S
C83          C84   1.401       .  A
C84          H88   1.084       .  S
C84          C85   1.403       .  A
C85          C86   1.406       .  A
C86          H89   1.084       .  S
C90          C95   1.408       .  A
C90         C224   1.407       .  A
C91         H104   1.083       .  S
C91          C92   1.397       .  A
C91         C223   1.407   1_545  A
C92         H105   1.084       .  S
C92         C226   1.398   1_545  A
C93          C94   1.399       .  A
C93         C225   1.398       .  A
C93          C96   1.437       .  S
C94         H106   1.083       .  S
C94          C95   1.398       .  A
C95         H107   1.083       .  S
C96          C97   1.205       .  T
C97          C98   1.437       .  S
C98          C99   1.399       .  A
C98         C236   1.401       .  A
C99         H108   1.084       .  S
C99         C100   1.396       .  A
C100        H109   1.083       .  S
C100        C101   1.406       .  A
C101        C235   1.405       .  A
C102        H110   1.083       .  S
C102        C103   1.399       .  A
C102        C234   1.405   1_545  A
C103        H111   1.084       .  S
C103        C231   1.401   1_545  A
C112        C113   1.405       .  A
C112        C383   1.404   1_455  A
C113        H126   1.083       .  S
C113        C114   1.397       .  A
C114        H127   1.083       .  S
C114        C381   1.399       .  A
C115        C116   1.401       .  A
C115        C380   1.399       .  A
C115        C118   1.438       .  S
C116        H128   1.083       .  S
C116        C117   1.399       .  A
C117        H129   1.083       .  S
C117        C378   1.404       .  A
C118        C119   1.205       .  T
C119        C120   1.438       .  S
C120        C121   1.399       .  A
C120        C391   1.399       .  A
C121        H130   1.083       .  S
C121        C122   1.398       .  A
C122        H131   1.083       .  S
C122        C389   1.407       .  A
C123        C124   1.409       .  A
C123        C388   1.407   1_455  A
C124        H132   1.083       .  S
C124        C125   1.398       .  A
C125        H133   1.083       .  S
C125        C386   1.399       .  A
C134        N152   1.349       .  A
N135        N157   1.319       .  A
N135       Co172   2.080       .  S
C136        N427   1.339       .  A
C136        C174   1.458       .  S
C136        H181   1.081       .  S
H137        C178   1.081       .  S
C138        N162   1.341       .  A
C138        C408   1.460       .  S
C138        H167   1.081       .  S
Co139       N157   2.082   1_556  S
Co139       N147   2.084       .  S
Co139       N179   2.083   1_556  S
Co139       N155   2.084       .  S
N140        N147   1.320       .  A
N140       Co274   2.076   1_565  S
Co141       N273   2.076       .  S
Co141       N144   2.083       .  S
Co141       N294   2.079       .  S
Co141       N148   2.080       .  S
Co141      Cl449   2.462       .  S
C142        N180   1.350   1_655  A
C142        C404   1.460       .  S
C142        C198   1.475   1_655  S
N143        N150   1.320       .  A
N143        N173   1.325       .  A
N143       Co176   2.089       .  S
N144        N162   1.320       .  A
N144        N446   1.325       .  A
N145        C440   1.349       .  A
N145        N155   1.325       .  A
H146        C171   1.081       .  S
N147        N168   1.324       .  A
N148        N166   1.320       .  A
C149        N153   1.349   1_545  A
C149        C218   1.473       .  S
N150        C431   1.341       .  A
N150       Co305   2.079       .  S
C151        N179   1.341       .  A
C151        C420   1.460       .  S
C151        H185   1.081       .  S
C154        N175   1.349       .  A
C154        C417   1.460       .  S
C154        C457   1.473       .  S
N155        N161   1.320       .  A
N156        N158   1.320       .  A
N156       Co305   2.076       .  S
N157        C171   1.340       .  A
N158        N186   1.324       .  A
N158       Co176   2.089       .  S
H159        C182   1.081       .  S
H160        C177   1.081       .  S
N161        C402   1.339   1_455  A
N161       Co274   2.079   1_565  S
N162       Co176   2.086   1_556  S
N163        N441   1.323       .  A
N163        N179   1.319       .  A
N163       Co172   2.081       .  S
C164        C178   1.458       .  S
C165        N416   1.341       .  A
C165        C184   1.459       .  S
C165        H169   1.081       .  S
N166        C177   1.340       .  A
N166       Co176   2.085   1_556  S
C170        C182   1.458       .  S
C170        C209   1.471       .  S
Co172       N283   2.079   1_565  S
Co172       N289   2.076   1_455  S
N173        C450   1.350       .  A
C174        N411   1.349       .  A
C174        C466   1.470       .  S
N175        N429   1.323       .  A
Co176      Cl449   2.434   1_554  S
N180        N410   1.325   1_455  A
Cl183      Co407   2.462       .  S
Cl183      Co442   2.434   1_456  S
C184        N439   1.350   1_455  A
C184        C189   1.472       .  S
C187        C256   1.487       .  S
C187        C188   1.407       .  A
C187        C192   1.405       .  A
C188        H193   1.083       .  S
C188        C189   1.404       .  A
C189        C190   1.402       .  A
C190        H194   1.084       .  S
C190        C191   1.402       .  A
C191        C420   1.473       .  S
C191        C192   1.402       .  A
C192        H195   1.083       .  S
C196        C245   1.477       .  S
C196        C197   1.405       .  A
C196        C201   1.401       .  A
C197        H202   1.084   1_455  S
C197        C198   1.406       .  A
C198        C199   1.405       .  A
C199        H203   1.084       .  S
C199        C200   1.402       .  A
C200        C440   1.470       .  S
C200        C201   1.400       .  A
C201        H204   1.084       .  S
C205        C223   1.485       .  S
C205        C206   1.405       .  A
C205        C210   1.406       .  A
C206        H211   1.083       .  S
C206        C207   1.402       .  A
C207        C208   1.402       .  A
C208        H212   1.084       .  S
C208        C209   1.401       .  A
C209        C210   1.403       .  A
C210        H213   1.083       .  S
C214        C234   1.479       .  S
C214        C215   1.402       .  A
C214        C219   1.405   1_565  A
C215        H220   1.084       .  S
C215        C216   1.399       .  A
C216        C217   1.401   1_565  A
C217        H221   1.084   1_545  S
C217        C218   1.403       .  A
C218        C219   1.406       .  A
C219        H222   1.084       .  S
C223        C228   1.408       .  A
C224        H237   1.083       .  S
C224        C225   1.397       .  A
C225        H238   1.084       .  S
C226        C227   1.399       .  A
C226        C229   1.437       .  S
C227        H239   1.083       .  S
C227        C228   1.398       .  A
C228        H240   1.083       .  S
C229        C230   1.205       .  T
C230        C231   1.437       .  S
C231        C232   1.399       .  A
C232        H241   1.084       .  S
C232        C233   1.396       .  A
C233        H242   1.083       .  S
C233        C234   1.406       .  A
C235        H243   1.083       .  S
C235        C236   1.399       .  A
C236        H244   1.084       .  S
C245        C246   1.405       .  A
C245        C516   1.404   1_455  A
C246        H259   1.083       .  S
C246        C247   1.397       .  A
C247        H260   1.083       .  S
C247        C514   1.399       .  A
C248        C513   1.399       .  A
C248        C249   1.401       .  A
C248        C251   1.438       .  S
C249        H261   1.083       .  S
C249        C250   1.399       .  A
C250        H262   1.083       .  S
C250        C511   1.404       .  A
C251        C252   1.205       .  T
C252        C253   1.438       .  S
C253        C254   1.399       .  A
C253        C524   1.399       .  A
C254        H263   1.083       .  S
C254        C255   1.398       .  A
C255        H264   1.083       .  S
C255        C522   1.407       .  A
C256        C521   1.407   1_455  A
C256        C257   1.409       .  A
C257        H265   1.083       .  S
C257        C258   1.398       .  A
C258        H266   1.083       .  S
C258        C519   1.399       .  A
C267        N285   1.349   1_565  A
C267        C437   1.459       .  S
C267        C473   1.471       .  S
N268        N418   1.324       .  A
N268        N290   1.319       .  A
N268       Co305   2.080       .  S
C269        C307   1.458   1_655  S
C269        H314   1.081       .  S
H270        C311   1.081       .  S
C271        N295   1.341       .  A
C271        H300   1.081       .  S
Co272       N290   2.082   1_556  S
Co272       N280   2.084       .  S
Co272       N312   2.083   1_556  S
Co272       N288   2.084       .  S
Co272      Cl449   2.437       .  S
N273        C444   1.339       .  A
N273        N280   1.320       .  A
Co274       N277   2.083   1_455  S
Co274       N281   2.080   1_455  S
C275        N313   1.350       .  A
C275        C331   1.475       .  S
N276        N283   1.320   1_655  A
N276        N306   1.325       .  A
N276       Co309   2.089       .  S
N277        N295   1.320       .  A
N278        N288   1.325       .  A
H279        C304   1.081       .  S
N280        N301   1.324       .  A
N281        N299   1.320       .  A
N281        N419   1.325   1_545  A
C282        N286   1.349       .  A
C282        C443   1.459       .  S
C282        C351   1.473       .  S
C284        N312   1.341       .  A
C284        H318   1.081       .  S
N285        N401   1.324   1_545  A
N286        N414   1.325       .  A
C287        N308   1.349       .  A
N288        N294   1.320       .  A
N289        C448   1.340       .  A
N289        N291   1.320   1_565  A
N290        C304   1.340       .  A
N291        N319   1.324       .  A
N291       Co309   2.089       .  S
H292        C315   1.081       .  S
H293        C310   1.081       .  S
N295       Co309   2.086   1_556  S
N296        N312   1.319       .  A
N296       Co305   2.081       .  S
C297        N434   1.348       .  A
C297        C311   1.458   1_565  S
C297        C482   1.468       .  S
C298        C317   1.459       .  S
C298        H302   1.081       .  S
N299        C310   1.340       .  A
N299       Co309   2.085   1_556  S
N301        C430   1.348       .  A
C303        N452   1.350       .  A
C303        C315   1.458       .  S
C303        C342   1.471       .  S
C304        C400   1.459       .  S
Co305      Cl449   2.462   1_554  S
C310        C415   1.459       .  S
C311        N406   1.339   1_545  A
C315        N422   1.340       .  A
Cl316      Co405   2.437       .  S
Cl316      Co438   2.462   1_556  S
C317        C322   1.472       .  S
N319        C436   1.350   1_545  A
C320        C389   1.487       .  S
C320        C321   1.407       .  A
C320        C325   1.405       .  A
C321        H326   1.083       .  S
C321        C322   1.404       .  A
C322        C323   1.402       .  A
C323        H327   1.084       .  S
C323        C324   1.402       .  A
C324        C325   1.402       .  A
C325        H328   1.083       .  S
C329        C378   1.477       .  S
C329        C330   1.405       .  A
C329        C334   1.401       .  A
C330        H335   1.084       .  S
C330        C331   1.406       .  A
C331        C332   1.405       .  A
C332        H336   1.084       .  S
C332        C333   1.402       .  A
C333        C334   1.400       .  A
C334        H337   1.084       .  S
C338        C356   1.485       .  S
C338        C339   1.405       .  A
C338        C343   1.406       .  A
C339        H344   1.083       .  S
C339        C340   1.402       .  A
C340        C400   1.471       .  S
C340        C341   1.402       .  A
C341        H345   1.084       .  S
C341        C342   1.401       .  A
C342        C343   1.403       .  A
C343        H346   1.083       .  S
C347        C367   1.479       .  S
C347        C348   1.402       .  A
C347        C352   1.405       .  A
C348        H353   1.084       .  S
C348        C349   1.399       .  A
C349        C430   1.468       .  S
C349        C350   1.401       .  A
C350        H354   1.084       .  S
C350        C351   1.403       .  A
C351        C352   1.406       .  A
C352        H355   1.084       .  S
C356        C490   1.407       .  A
C356        C361   1.408       .  A
C357        H370   1.083       .  S
C357        C489   1.407   1_545  A
C357        C358   1.397       .  A
C358        H371   1.084       .  S
C358        C492   1.398   1_545  A
C359        C491   1.398       .  A
C359        C360   1.399       .  A
C359        C362   1.437       .  S
C360        H372   1.083       .  S
C360        C361   1.398       .  A
C361        H373   1.083       .  S
C362        C363   1.205       .  T
C363        C364   1.437       .  S
C364        C365   1.399       .  A
C364        C502   1.401       .  A
C365        H374   1.084       .  S
C365        C366   1.396       .  A
C366        H375   1.083       .  S
C366        C367   1.406       .  A
C367        C501   1.405       .  A
C368        H376   1.083       .  S
C368        C500   1.405   1_545  A
C368        C369   1.399       .  A
C369        H377   1.084       .  S
C369        C497   1.401   1_545  A
C378        C379   1.405       .  A
C379        H392   1.083       .  S
C379        C380   1.397       .  A
C380        H393   1.083       .  S
C381        C382   1.401   1_455  A
C381        C384   1.438       .  S
C382        H394   1.083       .  S
C382        C383   1.399       .  A
C383        H395   1.083       .  S
C384        C385   1.205       .  T
C385        C386   1.438       .  S
C386        C387   1.399   1_455  A
C387        H396   1.083       .  S
C387        C388   1.398       .  A
C388        H397   1.083       .  S
C389        C390   1.409       .  A
C390        H398   1.083       .  S
C390        C391   1.398       .  A
C391        H399   1.083       .  S
C400        N418   1.349       .  A
N401        N423   1.319       .  A
N401       Co438   2.080       .  S
C402        C440   1.458   1_655  S
C402        H447   1.081       .  S
H403        C444   1.081       .  S
C404        N428   1.341       .  A
C404        H433   1.081       .  S
Co405       N423   2.082   1_556  S
Co405       N413   2.084       .  S
Co405       N445   2.083   1_556  S
Co405       N421   2.084       .  S
N406        N413   1.320       .  A
Co407       N410   2.083   1_455  S
Co407       N414   2.080   1_455  S
C408        N446   1.350       .  A
C408        C464   1.475       .  S
N409        N416   1.320   1_655  A
N409        N439   1.325       .  A
N409       Co442   2.089       .  S
N410        N428   1.320       .  A
N411        N421   1.325       .  A
H412        C437   1.081       .  S
N413        N434   1.324       .  A
N414        N432   1.320       .  A
C415        N419   1.349   1_545  A
C415        C484   1.473       .  S
C417        N445   1.341       .  A
C417        H451   1.081       .  S
C420        N441   1.349       .  A
N421        N427   1.320       .  A
N422        N424   1.320       .  A
N423        C437   1.340       .  A
N424        N452   1.324       .  A
N424       Co442   2.089       .  S
H425        C448   1.081       .  S
H426        C443   1.081       .  S
N428       Co442   2.086   1_556  S
N429        N445   1.319       .  A
N429       Co438   2.081       .  S
C430        C444   1.458       .  S
C431        C450   1.459       .  S
C431        H435   1.081       .  S
N432        C443   1.340       .  A
N432       Co442   2.085   1_556  S
C436        C448   1.458       .  S
C436        C475   1.471       .  S
C450        C455   1.472       .  S
C453        C522   1.487       .  S
C453        C454   1.407       .  A
C453        C458   1.405       .  A
C454        H459   1.083       .  S
C454        C455   1.404       .  A
C455        C456   1.402       .  A
C456        H460   1.084       .  S
C456        C457   1.402       .  A
C457        C458   1.402       .  A
C458        H461   1.083       .  S
C462        C511   1.477       .  S
C462        C463   1.405       .  A
C462        C467   1.401       .  A
C463        H468   1.084       .  S
C463        C464   1.406       .  A
C464        C465   1.405       .  A
C465        H469   1.084       .  S
C465        C466   1.402       .  A
C466        C467   1.400       .  A
C467        H470   1.084       .  S
C471        C489   1.485       .  S
C471        C472   1.405       .  A
C471        C476   1.406       .  A
C472        H477   1.083       .  S
C472        C473   1.402       .  A
C473        C474   1.402       .  A
C474        H478   1.084       .  S
C474        C475   1.401       .  A
C475        C476   1.403       .  A
C476        H479   1.083       .  S
C480        C500   1.479       .  S
C480        C481   1.402       .  A
C480        C485   1.405   1_565  A
C481        H486   1.084       .  S
C481        C482   1.399       .  A
C482        C483   1.401   1_565  A
C483        H487   1.084   1_545  S
C483        C484   1.403       .  A
C484        C485   1.406       .  A
C485        H488   1.084       .  S
C489        C494   1.408       .  A
C490        H503   1.083       .  S
C490        C491   1.397       .  A
C491        H504   1.084       .  S
C492        C493   1.399       .  A
C492        C495   1.437       .  S
C493        H505   1.083       .  S
C493        C494   1.398       .  A
C494        H506   1.083       .  S
C495        C496   1.205       .  T
C496        C497   1.437       .  S
C497        C498   1.399       .  A
C498        H507   1.084       .  S
C498        C499   1.396       .  A
C499        H508   1.083       .  S
C499        C500   1.406       .  A
C501        H509   1.083       .  S
C501        C502   1.399       .  A
C502        H510   1.084       .  S
C511        C512   1.405       .  A
C512        H525   1.083       .  S
C512        C513   1.397       .  A
C513        H526   1.083       .  S
C514        C515   1.401   1_455  A
C514        C517   1.438       .  S
C515        H527   1.083       .  S
C515        C516   1.399       .  A
C516        H528   1.083       .  S
C517        C518   1.205       .  T
C518        C519   1.438       .  S
C519        C520   1.399   1_455  A
C520        H529   1.083       .  S
C520        C521   1.398       .  A
C521        H530   1.083       .  S
C522        C523   1.409       .  A
C523        H531   1.083       .  S
C523        C524   1.398       .  A
C524        H532   1.083       .  S
