geometry optimzed in LAMMPS
_audit_creation_date              2020-11-30 
_audit_creation_method            'lammps2cif' 
_symmetry_space_group_name_H-M    'P1' 
_symmetry_Int_Tables_number       1 
_symmetry_cell_setting            triclinic 
loop_ 
_symmetry_equiv_pos_as_xyz 
  x,y,z 
_cell_length_a                    30.003533294282192 
_cell_length_b                    26.337740418253127 
_cell_length_c                    44.32701730987134 
_cell_angle_alpha                 89.92746891249107 
_cell_angle_beta                  89.82001672052866 
_cell_angle_gamma                 90.00115646447217 
loop_ 
_atom_site_label 
_atom_site_type_symbol 
_atom_site_fract_x 
_atom_site_fract_y 
_atom_site_fract_z 
_atom_site_charge 
O1          O  0.08814221  0.99897688  0.04551635    -0.72710
O2          O  0.08890547  0.00073427  0.45495058    -0.73690
O3          O  0.08896467  0.92403449  0.49975580    -0.62310
O4          O  0.08784863  0.07631777  0.00046260    -0.70720
O5          O  0.16171372  0.07698766  0.99999583    -0.70270
O6          O  0.16282329  0.92458165  0.50049310    -0.61530
O7          O  0.16267911  0.00051287  0.45512931    -0.74040
O8          O  0.16206768  0.00143525  0.04564264    -0.72820
Cu9        Cu  0.08587893  0.00001769  0.50026437     1.04560
Cu10       Cu  0.16490794  0.00091271  0.00041535     1.04330
C11         C  0.12499714  0.99992071  0.05987185     0.93490
C12         C  0.12595720  0.00062060  0.44060486     0.92630
C13         C  0.12607931  0.90015647  0.99958167     0.84770
C14         C  0.12455441  0.10081628  0.49969345     0.91040
O15         O  0.08802945  0.99858338  0.20435501    -0.72710
O16         O  0.08735033  0.99948316  0.29486926    -0.73690
O17         O  0.08721291  0.07541644  0.24950601    -0.62310
O18         O  0.08837594  0.92303042  0.25000115    -0.70720
O19         O  0.16224109  0.92370113  0.24954005    -0.70270
O20         O  0.16107140  0.07596352  0.25024798    -0.61530
O21         O  0.16112398  0.99926178  0.29505146    -0.74040
O22         O  0.16195487  0.00104245  0.20448627    -0.72820
Cu23       Cu  0.08518105  0.99910544  0.24958168     1.04560
Cu24       Cu  0.16415737  0.99998035  0.24973854     1.04330
C25         C  0.12510203  0.00009768  0.19012828     0.93490
C26         C  0.12407087  0.99937494  0.30939544     0.92630
C27         C  0.12400901  0.09986200  0.25041880     0.84770
C28         C  0.12548158  0.89918176  0.25030569     0.91040
C29         C  0.12424790  0.15692585  0.49685815     0.03360
C30         C  0.08388735  0.18357694  0.49481954    -0.12790
C31         C  0.08316181  0.23587377  0.48802081     0.00860
C32         C  0.12413824  0.26066754  0.48290054    -0.11310
C33         C  0.16511946  0.23603663  0.48802939     0.03350
C34         C  0.16447345  0.18383731  0.49493585    -0.10730
H35         H  0.05319320  0.16319883  0.49890264     0.08950
H36         H  0.12419047  0.29945382  0.97501466     0.06480
H37         H  0.19519232  0.16368911  0.49918702     0.06330
C38         C  0.12379955  0.15593699  0.25326126     0.03360
C39         C  0.08346437  0.18259574  0.25530231    -0.12790
C40         C  0.08272521  0.23481872  0.26213482     0.00860
C41         C  0.12366851  0.25959231  0.26724242    -0.11310
C42         C  0.16468215  0.23498323  0.26208766     0.03350
C43         C  0.16405019  0.18279946  0.25518201    -0.10730
H44         H  0.05279290  0.16227543  0.25119938     0.08950
H45         H  0.12362166  0.29832209  0.27513544     0.06480
H46         H  0.19479222  0.16263619  0.25092950     0.06330
C47         C  0.12628848  0.84408152  0.99673907     0.03360
C48         C  0.16662362  0.81742273  0.99469781    -0.12790
C49         C  0.16736275  0.76519989  0.98786496     0.00860
C50         C  0.12641943  0.74042646  0.98275723    -0.11310
C51         C  0.08540580  0.76503553  0.98791214     0.03350
C52         C  0.08603780  0.81721918  0.99481817    -0.10730
H53         H  0.19729512  0.83774288  0.99880091     0.08950
H54         H  0.12646626  0.70169681  0.97486398     0.06480
H55         H  0.05529577  0.83738245  0.99907069     0.06290
C56         C  0.12578775  0.84307218  0.25314114     0.03360
C57         C  0.16614821  0.81642105  0.25518015    -0.12790
C58         C  0.16687366  0.76412456  0.26197974     0.00860
C59         C  0.12589720  0.73933112  0.26710041    -0.11310
C60         C  0.08491601  0.76396188  0.26197115     0.03350
C61         C  0.08556211  0.81616090  0.25506382    -0.10730
H62         H  0.19684238  0.83679893  0.25109673     0.08950
H63         H  0.12589975  0.70056576  0.27498792     0.06480
H64         H  0.05484325  0.83630905  0.25081249     0.06330
C65         C  0.00115755  0.65699407  0.99657224     0.03360
C66         C  0.04154884  0.68362452  0.99454823    -0.12790
C67         C  0.04235005  0.73594559  0.98784096     0.00860
C68         C  0.00142373  0.76077913  0.98277357    -0.11310
C69         C  0.21039330  0.73613150  0.98787463     0.03350
C70         C  0.21096306  0.68391745  0.99471280    -0.10730
H71         H  0.07220253  0.66322054  0.99859612     0.08950
H72         H  0.25150052  0.79958526  0.97495601     0.06480
H73         H  0.18020268  0.66376711  0.99895651     0.06330
C74         C  0.00090527  0.65590735  0.25331158     0.03360
C75         C  0.21062732  0.68277613  0.25518473    -0.12790
C76         C  0.20992540  0.73501428  0.26197596     0.00860
C77         C  0.00088747  0.75966082  0.26708596    -0.11310
C78         C  0.04188271  0.73487303  0.26203572     0.03350
C79         C  0.04121327  0.68260276  0.25531185    -0.10730
H80         H  0.17992628  0.66257889  0.25098186     0.08950
H81         H  0.00085481  0.79843470  0.27490046     0.06480
H82         H  0.07192492  0.66227183  0.25124160     0.06330
C83         C  0.24918476  0.34411131  0.99669162     0.03360
C84         C  0.20887683  0.31741583  0.99469117    -0.12790
C85         C  0.20820745  0.26514589  0.98796642     0.00860
C86         C  0.24920272  0.24035841  0.98291576    -0.11310
C87         C  0.04016477  0.26500481  0.98802609     0.03350
C88         C  0.03946278  0.31724273  0.99481799    -0.10730
H89         H  0.17816515  0.33774655  0.99876168     0.08950
H90         H  0.24923542  0.20158489  0.97510064     0.06480
H91         H  0.07016380  0.33743995  0.99902098     0.06330
C92         C  0.99893050  0.34302455  0.25342709     0.03360
C93         C  0.20853916  0.31639421  0.25545114    -0.12790
C94         C  0.20773791  0.26407319  0.26215862     0.00860
C95         C  0.99866420  0.23923964  0.26722613    -0.11310
C96         C  0.03969465  0.26388712  0.26212496     0.03350
C97         C  0.03912494  0.31610108  0.25528658    -0.10730
H98         H  0.17788550  0.33679827  0.25140332     0.08950
H99         H  0.99858741  0.20043364  0.27504390     0.06480
H100        H  0.06988534  0.33625132  0.25104277     0.06330
O101        O  0.21279676  0.50103612  0.45502195    -0.72710
O102        O  0.21293869  0.50120984  0.04535042    -0.73690
O103        O  0.21368331  0.57708140  0.99997299    -0.62310
O104        O  0.21251245  0.42466529  0.00012267    -0.70720
O105        O  0.03637888  0.42413483  0.99988136    -0.70270
O106        O  0.03755210  0.57637497  0.99985902    -0.61530
O107        O  0.03680783  0.50001893  0.04533683    -0.74040
O108        O  0.03663005  0.50019266  0.45466624    -0.72820
Cu109      Cu  0.21045358  0.50099857  0.00022051     1.04560
Cu110      Cu  0.03937778  0.50014069  0.50002398     1.04330
C111        C  0.24959426  0.50077201  0.44045482     0.93490
C112        C  0.24978313  0.50081055  0.05969203     0.92630
C113        C  0.00080410  0.60090249  0.99937913     0.84770
C114        C  0.24933027  0.40021698  0.99947785     0.91040
O115        O  0.21328933  0.50000294  0.20466233    -0.72710
O116        O  0.21339815  0.49980304  0.29533328    -0.73690
O117        O  0.21371084  0.57588425  0.25011887    -0.62310
O118        O  0.21253640  0.42364386  0.25013821    -0.70720
O119        O  0.03640518  0.42293717  0.25002984    -0.70270
O120        O  0.03757727  0.57535299  0.24988302    -0.61530
O121        O  0.03723143  0.49895992  0.29498189    -0.74040
O122        O  0.03715845  0.49881120  0.20465342    -0.72820
Cu123      Cu  0.21065825  0.49985720  0.24997478     1.04560
Cu124      Cu  0.03963543  0.49901980  0.24978402     1.04330
C125        C  0.00031596  0.49921246  0.19030947     0.93490
C126        C  0.00043216  0.49922259  0.30954688     0.92630
C127        C  0.00075959  0.59980169  0.25052531     0.84770
C128        C  0.99928426  0.39911619  0.25062061     0.91040
C129        C  0.99942977  0.50079432  0.40696652    -0.05230
C130        C  0.03812496  0.48660050  0.39116240    -0.32660
C131        C  0.03888879  0.48542698  0.35959655     0.36590
C132        C  0.00059387  0.49919699  0.34303521    -0.05590
C133        C  0.21189821  0.51338978  0.35883924    -0.32560
C134        C  0.21113437  0.51456307  0.39040531     0.36490
H135        H  0.06791103  0.47563389  0.40329775     0.16860
O136        O  0.07724547  0.47030282  0.34528227    -0.60060
H137        H  0.18211231  0.52435637  0.34670372     0.16880
O138        O  0.17277767  0.52968637  0.40471987    -0.60150
H139        H  0.17577922  0.56694522  0.40715613     0.43880
H140        H  0.07424286  0.43304419  0.34284538     0.43830
C141        C  0.99963699  0.50089306  0.09309872    -0.05230
C142        C  0.03692474  0.48249629  0.10875311    -0.32660
C143        C  0.03746237  0.48119539  0.14030205     0.36590
C144        C  0.00046538  0.49913390  0.15690278    -0.05590
C145        C  0.21317824  0.51753182  0.14124831    -0.32560
C146        C  0.21264066  0.51883294  0.10969956     0.36490
H147        H  0.06560705  0.46822960  0.09650328     0.16860
O148        O  0.07415133  0.46162877  0.15458625    -0.60060
H149        H  0.18449575  0.53179842  0.15349798     0.16880
O150        O  0.17595178  0.53840028  0.09541559    -0.60150
H151        H  0.18260676  0.57497582  0.09254790     0.43880
H152        H  0.06749741  0.42505279  0.15745310     0.43830
C153        C  0.12604693  0.00046796  0.40702784    -0.05230
C154        C  0.08530932  0.99930330  0.39144983    -0.32660
C155        C  0.08398538  0.99865846  0.35987948     0.36590
C156        C  0.12397936  0.99952677  0.34297243    -0.05590
C157        C  0.16471680  0.00069125  0.35855054    -0.32560
C158        C  0.16604080  0.00133616  0.39012066     0.36490
H159        H  0.05406190  0.99871154  0.40374678     0.16860
O160        O  0.04325137  0.99779550  0.34592984    -0.60060
H161        H  0.19596441  0.00128306  0.34625381     0.16880
O162        O  0.20677510  0.00219924  0.40406995    -0.60150
H163        H  0.21532382  0.03854131  0.40483258     0.43880
H164        H  0.03470281  0.96145339  0.34516685     0.43830
C165        C  0.12525329  0.00047708  0.15682904    -0.05230
C166        C  0.09249224  0.97328616  0.14110311    -0.32660
C167        C  0.09231814  0.97234333  0.10953991     0.36590
C168        C  0.12484955  0.99953867  0.09317108    -0.05590
C169        C  0.15761127  0.02672882  0.10889694    -0.32560
C170        C  0.15778541  0.02767155  0.14046030     0.36490
H171        H  0.06743083  0.95186006  0.15333309     0.16860
O172        O  0.06080273  0.94381212  0.09495407    -0.60060
H173        H  0.18267244  0.04815509  0.09666685     0.16880
O174        O  0.18930077  0.05620258  0.15504631    -0.60150
H175        H  0.17495242  0.08963511  0.15859114     0.43880
H176        H  0.07515158  0.91038005  0.09140849     0.43830
O177        O  0.08808929  0.99895790  0.54551705    -0.72710
O178        O  0.08895620  0.00075582  0.95495190    -0.73690
O179        O  0.08901697  0.92405506  0.99975536    -0.62310
O180        O  0.08779502  0.07629690  0.50046159    -0.70720
O181        O  0.16166013  0.07696766  0.49999569    -0.70270
O182        O  0.16287562  0.92460192  0.00049160    -0.61530
O183        O  0.16272991  0.00053391  0.95512760    -0.74040
O184        O  0.16201476  0.00141721  0.54564234    -0.72820
Cu185      Cu  0.08593156  0.00003841  0.00026469     1.04560
Cu186      Cu  0.16485529  0.00089269  0.50041607     1.04330
C187        C  0.12494481  0.99990424  0.55987206     0.93490
C188        C  0.12600645  0.00064126  0.94060467     0.92630
C189        C  0.12602704  0.90013603  0.49958283     0.84770
C190        C  0.12460826  0.10083674  0.99969418     0.91040
O191        O  0.08801270  0.99858026  0.70436071    -0.72710
O192        O  0.08736619  0.99948585  0.79487450    -0.73690
O193        O  0.08721275  0.07541594  0.74951008    -0.62310
O194        O  0.08837587  0.92303022  0.75000798    -0.70720
O195        O  0.16224092  0.92370063  0.74953618    -0.70270
O196        O  0.16107152  0.07596335  0.75024137    -0.61530
O197        O  0.16113990  0.99926445  0.79504651    -0.74040
O198        O  0.16193822  0.00103934  0.70448075    -0.72820
Cu199      Cu  0.08518082  0.99910509  0.74958761     1.04560
Cu200      Cu  0.16415724  0.99998000  0.74973283     1.04330
C201        C  0.12508050  0.00009381  0.69012837     0.93490
C202        C  0.12409111  0.99937919  0.80939560     0.92630
C203        C  0.12400909  0.09986168  0.75041740     0.84770
C204        C  0.12548155  0.89918142  0.75030731     0.91040
C205        C  0.12430228  0.15694639  0.99685913     0.03360
C206        C  0.08394189  0.18359776  0.99482071    -0.12790
C207        C  0.08321651  0.23589452  0.98802186     0.00860
C208        C  0.12419299  0.26068810  0.98290153    -0.11310
C209        C  0.16517416  0.23605702  0.98803036     0.03350
C210        C  0.16452800  0.18385761  0.99493670    -0.10730
H211        H  0.05324771  0.16321983  0.99890395     0.08950
H212        H  0.12413566  0.29943330  0.47501372     0.06480
H213        H  0.19524682  0.16370919  0.99918768     0.06330
C214        C  0.12380002  0.15593665  0.75326006     0.03360
C215        C  0.08346492  0.18259539  0.75530171    -0.12790
C216        C  0.08272583  0.23481795  0.76213524     0.00860
C217        C  0.12366915  0.25959116  0.76724330    -0.11310
C218        C  0.16468278  0.23498231  0.76208801     0.03350
C219        C  0.16405074  0.18279894  0.75518119    -0.10730
H220        H  0.05279342  0.16227536  0.75119840     0.08950
H221        H  0.12362232  0.29832044  0.77513718     0.06480
H222        H  0.19479277  0.16263578  0.75092848     0.06330
C223        C  0.12623620  0.84406099  0.49674055     0.03360
C224        C  0.16657130  0.81740216  0.49469936    -0.12790
C225        C  0.16731039  0.76517932  0.48786652     0.00860
C226        C  0.12636706  0.74040591  0.48275877    -0.11310
C227        C  0.08535344  0.76501496  0.48791368     0.03350
C228        C  0.08598548  0.81719864  0.49481969    -0.10730
H229        H  0.19724279  0.83772233  0.49880244     0.08950
H230        H  0.12641389  0.70167630  0.47486545     0.06480
H231        H  0.05524346  0.83736195  0.49907217     0.06290
C232        C  0.12578811  0.84307183  0.75314255     0.03360
C233        C  0.16614865  0.81642067  0.75518094    -0.12790
C234        C  0.16687417  0.76412376  0.76197947     0.00860
C235        C  0.12589774  0.73932993  0.76709966    -0.11310
C236        C  0.08491652  0.76396093  0.76197096     0.03350
C237        C  0.08556254  0.81616037  0.75506485    -0.10730
H238        H  0.19684279  0.83679882  0.75109789     0.08950
H239        H  0.12590031  0.70056407  0.77498629     0.06480
H240        H  0.05484368  0.83630863  0.75081374     0.06330
C241        C  0.00110518  0.65697336  0.49657332     0.03360
C242        C  0.04149647  0.68360381  0.49454945    -0.12790
C243        C  0.04229768  0.73592499  0.48784243     0.00860
C244        C  0.00137136  0.76075858  0.48277512    -0.11310
C245        C  0.21034093  0.73611092  0.48787611     0.03350
C246        C  0.21091069  0.68389680  0.49471407    -0.10730
H247        H  0.07215013  0.66319974  0.49859723     0.08950
H248        H  0.25144815  0.79956476  0.47495767     0.06480
H249        H  0.18015031  0.66374642  0.49895773     0.06330
C250        C  0.00090574  0.65590702  0.75330886     0.03360
C251        C  0.21062782  0.68277575  0.75518264    -0.12790
C252        C  0.20992592  0.73501347  0.76197496     0.00860
C253        C  0.00088800  0.75965962  0.76708549    -0.11310
C254        C  0.04188324  0.73487209  0.76203469     0.03350
C255        C  0.04121378  0.68260226  0.75530956    -0.10730
H256        H  0.17992677  0.66257874  0.75097942     0.08950
H257        H  0.00085532  0.79843299  0.77490089     0.06480
H258        H  0.07192544  0.66227146  0.75123911     0.06330
C259        C  0.24913028  0.34409061  0.49669096     0.03360
C260        C  0.20882223  0.31739538  0.49469026    -0.12790
C261        C  0.20815275  0.26512546  0.48796543     0.00860
C262        C  0.24914798  0.24033784  0.48291475    -0.11310
C263        C  0.04011007  0.26498405  0.48802519     0.03350
C264        C  0.03940818  0.31722183  0.49481735    -0.10730
H265        H  0.17811058  0.33772622  0.49876069     0.08950
H266        H  0.24918064  0.20156437  0.47509954     0.06480
H267        H  0.07010924  0.33741884  0.49902055     0.06330
C268        C  0.99893105  0.34302421  0.75342988     0.03360
C269        C  0.20853975  0.31639371  0.75545353    -0.12790
C270        C  0.20773853  0.26407227  0.76215980     0.00860
C271        C  0.99866484  0.23923848  0.76722675    -0.11310
C272        C  0.03969528  0.26388634  0.76212609     0.03350
C273        C  0.03912553  0.31610071  0.75528877    -0.10730
H274        H  0.17788610  0.33679789  0.75140590     0.08950
H275        H  0.99858804  0.20043198  0.77504365     0.06480
H276        H  0.06988591  0.33625119  0.75104531     0.06330
O277        O  0.21284882  0.50105587  0.95502288    -0.72710
O278        O  0.21288614  0.50118871  0.54535138    -0.73690
O279        O  0.21363077  0.57706083  0.49997346    -0.62310
O280        O  0.21245862  0.42464491  0.50012228    -0.70720
O281        O  0.03632504  0.42411370  0.49988121    -0.70270
O282        O  0.03749956  0.57635398  0.49985968    -0.61530
O283        O  0.03675529  0.49999705  0.54533615    -0.74040
O284        O  0.03668207  0.50021322  0.95466506    -0.72820
Cu285      Cu  0.21040059  0.50097817  0.50022053     1.04560
Cu286      Cu  0.03943076  0.50016182  0.00002372     1.04330
C287        C  0.24964521  0.50079239  0.94045470     0.93490
C288        C  0.24973147  0.50078844  0.55969217     0.92630
C289        C  0.00075164  0.60088172  0.49937985     0.84770
C290        C  0.24927621  0.40019624  0.49947745     0.91040
O291        O  0.21327281  0.49999781  0.70466789    -0.72710
O292        O  0.21341492  0.49980736  0.79533862    -0.73690
O293        O  0.21371099  0.57588369  0.75012187    -0.62310
O294        O  0.21253659  0.42364368  0.75014614    -0.70720
O295        O  0.03640538  0.42293662  0.75002675    -0.70270
O296        O  0.03757740  0.57535283  0.74987538    -0.61530
O297        O  0.03724816  0.49896384  0.79497651    -0.74040
O298        O  0.03714197  0.49880650  0.70464801    -0.72820
Cu299      Cu  0.21065842  0.49985682  0.74998072     1.04560
Cu300      Cu  0.03963560  0.49901944  0.74977817     1.04330
C301        C  0.00029471  0.49920514  0.69030955     0.93490
C302        C  0.00045354  0.49922897  0.80954682     0.92630
C303        C  0.00075979  0.59980135  0.75052267     0.84770
C304        C  0.99928451  0.39911584  0.75062333     0.91040
C305        C  0.99947628  0.50081500  0.90696641    -0.05230
C306        C  0.03816806  0.48661966  0.89115893    -0.32660
C307        C  0.03892442  0.48544230  0.85959286     0.36590
C308        C  0.00062524  0.49920954  0.84303510    -0.05590
C309        C  0.21193394  0.51340591  0.85884265    -0.32560
C310        C  0.21117758  0.51458349  0.89040852     0.36490
H311        H  0.06795661  0.47565404  0.90329179     0.16860
O312        O  0.07727763  0.47031659  0.84527490    -0.60060
H313        H  0.18214521  0.52437155  0.84670998     0.16880
O314        O  0.17282440  0.52971009  0.90472619    -0.60150
H315        H  0.17582827  0.56696889  0.90716138     0.43880
H316        H  0.07427487  0.43305755  0.84284039     0.43830
C317        C  0.99958931  0.50086994  0.59309885    -0.05230
C318        C  0.03688054  0.48247465  0.60875008    -0.32660
C319        C  0.03742601  0.48117807  0.64029881     0.36590
C320        C  0.00043364  0.49911983  0.65690287    -0.05590
C321        C  0.21314179  0.51751395  0.64125172    -0.32560
C322        C  0.21259628  0.51881032  0.60970280     0.36490
H323        H  0.06556025  0.46820683  0.59649793     0.16860
O324        O  0.07411856  0.46161317  0.65457964    -0.60060
H325        H  0.18446226  0.53178183  0.65350402     0.16880
O326        O  0.17590364  0.53837447  0.59542174    -0.60150
H327        H  0.18255631  0.57495024  0.59255262     0.43880
H328        H  0.06746481  0.42503781  0.65744957     0.43830
C329        C  0.12609073  0.00048581  0.90702769    -0.05230
C330        C  0.08534974  0.99932016  0.89145376    -0.32660
C331        C  0.08401864  0.99867067  0.85988384     0.36590
C332        C  0.12400873  0.99953531  0.84297259    -0.05590
C333        C  0.16474991  0.00070110  0.85854643    -0.32560
C334        C  0.16608094  0.00135050  0.89011659     0.36490
H335        H  0.05410481  0.99873089  0.90375367     0.16860
O336        O  0.04328123  0.99780688  0.84593871    -0.60060
H337        H  0.19599463  0.00129031  0.84624628     0.16880
O338        O  0.20681805  0.00221413  0.90406209    -0.60150
H339        H  0.21536779  0.03855605  0.90482226     0.43880
H340        H  0.03473136  0.96146498  0.84517889     0.43830
C341        C  0.12522078  0.00047224  0.65682913    -0.05230
C342        C  0.09245527  0.97328032  0.64110779    -0.32660
C343        C  0.09227296  0.97233513  0.60954449     0.36590
C344        C  0.12480059  0.99952872  0.59317130    -0.05590
C345        C  0.15756534  0.02672151  0.60889271    -0.32560
C346        C  0.15774760  0.02766683  0.64045584     0.36490
H347        H  0.06739737  0.95185472  0.65334137     0.16860
O348        O  0.06075424  0.94380249  0.59496292    -0.60060
H349        H  0.18262350  0.04814694  0.59665925     0.16880
O350        O  0.18926631  0.05619976  0.65503724    -0.60150
H351        H  0.17491807  0.08963205  0.65858321     0.43880
H352        H  0.07510187  0.91036964  0.59141774     0.43830
O353        O  0.33814220  0.99897689  0.04551635    -0.72710
O354        O  0.33890547  0.00073427  0.45495059    -0.73690
O355        O  0.33896467  0.92403449  0.49975581    -0.62310
O356        O  0.33784863  0.07631777  0.00046260    -0.70720
O357        O  0.41171372  0.07698766  0.99999583    -0.70270
O358        O  0.41282329  0.92458165  0.50049310    -0.61530
O359        O  0.41267911  0.00051287  0.45512931    -0.74040
O360        O  0.41206768  0.00143524  0.04564264    -0.72820
Cu361      Cu  0.33587893  0.00001769  0.50026437     1.04560
Cu362      Cu  0.41490794  0.00091270  0.00041535     1.04330
C363        C  0.37499713  0.99992071  0.05987185     0.93490
C364        C  0.37595719  0.00062060  0.44060486     0.92630
C365        C  0.37607931  0.90015647  0.99958168     0.84770
C366        C  0.37455441  0.10081628  0.49969345     0.91040
O367        O  0.33802946  0.99858339  0.20435501    -0.72710
O368        O  0.33735033  0.99948316  0.29486926    -0.73690
O369        O  0.33721291  0.07541644  0.24950601    -0.62310
O370        O  0.33837594  0.92303042  0.25000115    -0.70720
O371        O  0.41224109  0.92370113  0.24954005    -0.70270
O372        O  0.41107140  0.07596352  0.25024798    -0.61530
O373        O  0.41112398  0.99926178  0.29505147    -0.74040
O374        O  0.41195488  0.00104244  0.20448628    -0.72820
Cu375      Cu  0.33518105  0.99910544  0.24958168     1.04560
Cu376      Cu  0.41415737  0.99998035  0.24973854     1.04330
C377        C  0.37510204  0.00009768  0.19012829     0.93490
C378        C  0.37407087  0.99937494  0.30939544     0.92630
C379        C  0.37400901  0.09986200  0.25041881     0.84770
C380        C  0.37548158  0.89918176  0.25030569     0.91040
C381        C  0.37424790  0.15692586  0.49685815     0.03360
C382        C  0.33388735  0.18357694  0.49481954    -0.12790
C383        C  0.33316181  0.23587377  0.48802081     0.00860
C384        C  0.37413824  0.26066754  0.48290054    -0.11310
C385        C  0.41511946  0.23603663  0.48802939     0.03350
C386        C  0.41447345  0.18383731  0.49493585    -0.10730
H387        H  0.30319320  0.16319883  0.49890264     0.08950
H388        H  0.37419047  0.29945382  0.97501466     0.06480
H389        H  0.44519232  0.16368911  0.49918703     0.06330
C390        C  0.37379955  0.15593699  0.25326126     0.03360
C391        C  0.33346437  0.18259574  0.25530232    -0.12790
C392        C  0.33272521  0.23481872  0.26213483     0.00860
C393        C  0.37366851  0.25959231  0.26724242    -0.11310
C394        C  0.41468215  0.23498323  0.26208767     0.03350
C395        C  0.41405019  0.18279946  0.25518201    -0.10730
H396        H  0.30279290  0.16227543  0.25119939     0.08950
H397        H  0.37362166  0.29832209  0.27513544     0.06480
H398        H  0.44479222  0.16263619  0.25092951     0.06330
C399        C  0.37628848  0.84408152  0.99673907     0.03360
C400        C  0.41662362  0.81742273  0.99469781    -0.12790
C401        C  0.41736275  0.76519989  0.98786497     0.00860
C402        C  0.37641943  0.74042646  0.98275724    -0.11310
C403        C  0.33540580  0.76503553  0.98791214     0.03350
C404        C  0.33603780  0.81721918  0.99481817    -0.10730
H405        H  0.44729512  0.83774288  0.99880091     0.08950
H406        H  0.37646626  0.70169681  0.97486398     0.06480
H407        H  0.30529577  0.83738245  0.99907069     0.06290
C408        C  0.37578775  0.84307218  0.25314114     0.03360
C409        C  0.41614821  0.81642105  0.25518016    -0.12790
C410        C  0.41687366  0.76412456  0.26197974     0.00860
C411        C  0.37589720  0.73933112  0.26710041    -0.11310
C412        C  0.33491601  0.76396188  0.26197115     0.03350
C413        C  0.33556211  0.81616091  0.25506382    -0.10730
H414        H  0.44684238  0.83679893  0.25109674     0.08950
H415        H  0.37589975  0.70056576  0.27498792     0.06480
H416        H  0.30484325  0.83630905  0.25081249     0.06330
C417        C  0.25115755  0.65699407  0.99657224     0.03360
C418        C  0.29154884  0.68362452  0.99454823    -0.12790
C419        C  0.29235005  0.73594559  0.98784096     0.00860
C420        C  0.25142373  0.76077913  0.98277357    -0.11310
C421        C  0.46039330  0.73613150  0.98787463     0.03350
C422        C  0.46096305  0.68391745  0.99471280    -0.10730
H423        H  0.32220252  0.66322054  0.99859612     0.08950
H424        H  0.50150052  0.79958526  0.97495601     0.06480
H425        H  0.43020268  0.66376711  0.99895652     0.06330
C426        C  0.25090528  0.65590735  0.25331158     0.03360
C427        C  0.46062732  0.68277613  0.25518473    -0.12790
C428        C  0.45992540  0.73501428  0.26197597     0.00860
C429        C  0.25088747  0.75966082  0.26708596    -0.11310
C430        C  0.29188271  0.73487303  0.26203572     0.03350
C431        C  0.29121327  0.68260276  0.25531185    -0.10730
H432        H  0.42992628  0.66257889  0.25098187     0.08950
H433        H  0.25085481  0.79843470  0.27490046     0.06480
H434        H  0.32192492  0.66227183  0.25124160     0.06330
C435        C  0.49918476  0.34411131  0.99669163     0.03360
C436        C  0.45887683  0.31741583  0.99469118    -0.12790
C437        C  0.45820745  0.26514589  0.98796642     0.00860
C438        C  0.49920272  0.24035841  0.98291577    -0.11310
C439        C  0.29016477  0.26500481  0.98802609     0.03350
C440        C  0.28946278  0.31724273  0.99481799    -0.10730
H441        H  0.42816515  0.33774655  0.99876169     0.08950
H442        H  0.49923542  0.20158489  0.97510064     0.06480
H443        H  0.32016380  0.33743995  0.99902098     0.06330
C444        C  0.24893051  0.34302455  0.25342709     0.03360
C445        C  0.45853916  0.31639421  0.25545114    -0.12790
C446        C  0.45773791  0.26407319  0.26215863     0.00860
C447        C  0.24866420  0.23923964  0.26722613    -0.11310
C448        C  0.28969465  0.26388712  0.26212496     0.03350
C449        C  0.28912495  0.31610108  0.25528659    -0.10730
H450        H  0.42788550  0.33679827  0.25140332     0.08950
H451        H  0.24858741  0.20043364  0.27504391     0.06480
H452        H  0.31988534  0.33625132  0.25104277     0.06330
O453        O  0.46279676  0.50103612  0.45502196    -0.72710
O454        O  0.46293869  0.50120985  0.04535043    -0.73690
O455        O  0.46368331  0.57708139  0.99997300    -0.62310
O456        O  0.46251245  0.42466529  0.00012267    -0.70720
O457        O  0.28637888  0.42413483  0.99988136    -0.70270
O458        O  0.28755210  0.57637497  0.99985902    -0.61530
O459        O  0.28680782  0.50001893  0.04533683    -0.74040
O460        O  0.28663005  0.50019266  0.45466624    -0.72820
Cu461      Cu  0.46045358  0.50099857  0.00022051     1.04560
Cu462      Cu  0.28937778  0.50014069  0.50002398     1.04330
C463        C  0.49959426  0.50077201  0.44045483     0.93490
C464        C  0.49978313  0.50081055  0.05969203     0.92630
C465        C  0.25080410  0.60090249  0.99937913     0.84770
C466        C  0.49933027  0.40021698  0.99947785     0.91040
O467        O  0.46328933  0.50000294  0.20466234    -0.72710
O468        O  0.46339815  0.49980304  0.29533329    -0.73690
O469        O  0.46371084  0.57588425  0.25011887    -0.62310
O470        O  0.46253640  0.42364386  0.25013821    -0.70720
O471        O  0.28640518  0.42293717  0.25002984    -0.70270
O472        O  0.28757727  0.57535299  0.24988302    -0.61530
O473        O  0.28723143  0.49895992  0.29498189    -0.74040
O474        O  0.28715845  0.49881120  0.20465342    -0.72820
Cu475      Cu  0.46065825  0.49985720  0.24997479     1.04560
Cu476      Cu  0.28963543  0.49901980  0.24978402     1.04330
C477        C  0.25031596  0.49921245  0.19030947     0.93490
C478        C  0.25043217  0.49922259  0.30954688     0.92630
C479        C  0.25075959  0.59980169  0.25052531     0.84770
C480        C  0.24928426  0.39911619  0.25062061     0.91040
C481        C  0.24942978  0.50079433  0.40696652    -0.05230
C482        C  0.28812497  0.48660051  0.39116240    -0.32660
C483        C  0.28888880  0.48542698  0.35959655     0.36590
C484        C  0.25059387  0.49919699  0.34303521    -0.05590
C485        C  0.46189821  0.51338975  0.35883925    -0.32560
C486        C  0.46113436  0.51456304  0.39040531     0.36490
H487        H  0.31791103  0.47563390  0.40329775     0.16860
O488        O  0.32724548  0.47030282  0.34528227    -0.60060
H489        H  0.43211230  0.52435632  0.34670372     0.16880
O490        O  0.42277765  0.52968631  0.40471988    -0.60150
H491        H  0.42577918  0.56694516  0.40715613     0.43880
H492        H  0.32424287  0.43304419  0.34284538     0.43830
C493        C  0.24963698  0.50089306  0.09309872    -0.05230
C494        C  0.28692475  0.48249631  0.10875311    -0.32660
C495        C  0.28746237  0.48119540  0.14030205     0.36590
C496        C  0.25046538  0.49913389  0.15690278    -0.05590
C497        C  0.46317824  0.51753184  0.14124831    -0.32560
C498        C  0.46264066  0.51883296  0.10969957     0.36490
H499        H  0.31560705  0.46822963  0.09650328     0.16860
O500        O  0.32415134  0.46162880  0.15458625    -0.60060
H501        H  0.43449576  0.53179845  0.15349798     0.16880
O502        O  0.42595179  0.53840031  0.09541559    -0.60150
H503        H  0.43260679  0.57497586  0.09254790     0.43880
H504        H  0.31749744  0.42505282  0.15745309     0.43830
C505        C  0.37604693  0.00046796  0.40702785    -0.05230
C506        C  0.33530932  0.99930329  0.39144983    -0.32660
C507        C  0.33398538  0.99865845  0.35987949     0.36590
C508        C  0.37397936  0.99952677  0.34297244    -0.05590
C509        C  0.41471680  0.00069125  0.35855054    -0.32560
C510        C  0.41604080  0.00133616  0.39012066     0.36490
H511        H  0.30406190  0.99871153  0.40374679     0.16860
O512        O  0.29325137  0.99779549  0.34592984    -0.60060
H513        H  0.44596441  0.00128307  0.34625381     0.16880
O514        O  0.45677510  0.00219925  0.40406996    -0.60150
H515        H  0.46532382  0.03854132  0.40483259     0.43880
H516        H  0.28470282  0.96145338  0.34516685     0.43830
C517        C  0.37525330  0.00047708  0.15682905    -0.05230
C518        C  0.34249221  0.97328621  0.14110311    -0.32660
C519        C  0.34231811  0.97234338  0.10953992     0.36590
C520        C  0.37484955  0.99953867  0.09317109    -0.05590
C521        C  0.40761131  0.02672877  0.10889694    -0.32560
C522        C  0.40778544  0.02767150  0.14046030     0.36490
H523        H  0.31743077  0.95186015  0.15333309     0.16860
O524        O  0.31080266  0.94381222  0.09495408    -0.60060
H525        H  0.43267250  0.04815500  0.09666685     0.16880
O526        O  0.43930084  0.05620248  0.15504631    -0.60150
H527        H  0.42495254  0.08963504  0.15859114     0.43880
H528        H  0.32515147  0.91038013  0.09140850     0.43830
O529        O  0.33808929  0.99895790  0.54551705    -0.72710
O530        O  0.33895620  0.00075582  0.95495191    -0.73690
O531        O  0.33901696  0.92405506  0.99975536    -0.62310
O532        O  0.33779502  0.07629690  0.50046159    -0.70720
O533        O  0.41166013  0.07696766  0.49999569    -0.70270
O534        O  0.41287562  0.92460192  0.00049160    -0.61530
O535        O  0.41272991  0.00053391  0.95512760    -0.74040
O536        O  0.41201476  0.00141721  0.54564234    -0.72820
Cu537      Cu  0.33593156  0.00003841  0.00026469     1.04560
Cu538      Cu  0.41485529  0.00089269  0.50041607     1.04330
C539        C  0.37494480  0.99990424  0.55987206     0.93490
C540        C  0.37600645  0.00064126  0.94060467     0.92630
C541        C  0.37602704  0.90013603  0.49958283     0.84770
C542        C  0.37460826  0.10083674  0.99969418     0.91040
O543        O  0.33801271  0.99858026  0.70436072    -0.72710
O544        O  0.33736619  0.99948584  0.79487450    -0.73690
O545        O  0.33721275  0.07541594  0.74951009    -0.62310
O546        O  0.33837587  0.92303022  0.75000799    -0.70720
O547        O  0.41224092  0.92370063  0.74953619    -0.70270
O548        O  0.41107152  0.07596335  0.75024137    -0.61530
O549        O  0.41113990  0.99926445  0.79504651    -0.74040
O550        O  0.41193823  0.00103933  0.70448076    -0.72820
Cu551      Cu  0.33518082  0.99910509  0.74958761     1.04560
Cu552      Cu  0.41415724  0.99998000  0.74973284     1.04330
C553        C  0.37508050  0.00009381  0.69012837     0.93490
C554        C  0.37409111  0.99937919  0.80939560     0.92630
C555        C  0.37400909  0.09986168  0.75041741     0.84770
C556        C  0.37548155  0.89918142  0.75030731     0.91040
C557        C  0.37430228  0.15694639  0.99685914     0.03360
C558        C  0.33394189  0.18359777  0.99482071    -0.12790
C559        C  0.33321651  0.23589452  0.98802186     0.00860
C560        C  0.37419299  0.26068810  0.98290153    -0.11310
C561        C  0.41517416  0.23605702  0.98803036     0.03350
C562        C  0.41452800  0.18385761  0.99493670    -0.10730
H563        H  0.30324771  0.16321983  0.99890395     0.08950
H564        H  0.37413567  0.29943330  0.47501372     0.06480
H565        H  0.44524682  0.16370919  0.99918768     0.06330
C566        C  0.37380002  0.15593665  0.75326007     0.03360
C567        C  0.33346492  0.18259539  0.75530172    -0.12790
C568        C  0.33272583  0.23481795  0.76213525     0.00860
C569        C  0.37366915  0.25959116  0.76724331    -0.11310
C570        C  0.41468278  0.23498231  0.76208802     0.03350
C571        C  0.41405075  0.18279894  0.75518120    -0.10730
H572        H  0.30279342  0.16227536  0.75119840     0.08950
H573        H  0.37362232  0.29832044  0.77513719     0.06480
H574        H  0.44479277  0.16263578  0.75092849     0.06330
C575        C  0.37623620  0.84406099  0.49674055     0.03360
C576        C  0.41657130  0.81740216  0.49469936    -0.12790
C577        C  0.41731039  0.76517932  0.48786652     0.00860
C578        C  0.37636706  0.74040591  0.48275877    -0.11310
C579        C  0.33535344  0.76501496  0.48791368     0.03350
C580        C  0.33598548  0.81719864  0.49481969    -0.10730
H581        H  0.44724279  0.83772233  0.49880244     0.08950
H582        H  0.37641389  0.70167630  0.47486546     0.06480
H583        H  0.30524346  0.83736195  0.49907217     0.06290
C584        C  0.37578811  0.84307182  0.75314256     0.03360
C585        C  0.41614865  0.81642067  0.75518094    -0.12790
C586        C  0.41687417  0.76412376  0.76197947     0.00860
C587        C  0.37589774  0.73932993  0.76709967    -0.11310
C588        C  0.33491652  0.76396093  0.76197096     0.03350
C589        C  0.33556254  0.81616037  0.75506485    -0.10730
H590        H  0.44684279  0.83679882  0.75109790     0.08950
H591        H  0.37590031  0.70056407  0.77498629     0.06480
H592        H  0.30484368  0.83630863  0.75081375     0.06330
C593        C  0.25110518  0.65697336  0.49657332     0.03360
C594        C  0.29149647  0.68360381  0.49454945    -0.12790
C595        C  0.29229768  0.73592499  0.48784243     0.00860
C596        C  0.25137136  0.76075858  0.48277512    -0.11310
C597        C  0.46034093  0.73611092  0.48787611     0.03350
C598        C  0.46091069  0.68389680  0.49471407    -0.10730
H599        H  0.32215013  0.66319974  0.49859723     0.08950
H600        H  0.50144815  0.79956476  0.47495767     0.06480
H601        H  0.43015031  0.66374642  0.49895773     0.06330
C602        C  0.25090574  0.65590702  0.75330886     0.03360
C603        C  0.46062782  0.68277575  0.75518264    -0.12790
C604        C  0.45992592  0.73501347  0.76197496     0.00860
C605        C  0.25088800  0.75965962  0.76708549    -0.11310
C606        C  0.29188324  0.73487209  0.76203469     0.03350
C607        C  0.29121378  0.68260226  0.75530956    -0.10730
H608        H  0.42992677  0.66257874  0.75097942     0.08950
H609        H  0.25085532  0.79843299  0.77490089     0.06480
H610        H  0.32192544  0.66227146  0.75123911     0.06330
C611        C  0.49913028  0.34409061  0.49669096     0.03360
C612        C  0.45882223  0.31739538  0.49469027    -0.12790
C613        C  0.45815275  0.26512546  0.48796543     0.00860
C614        C  0.49914798  0.24033784  0.48291476    -0.11310
C615        C  0.29011007  0.26498405  0.48802519     0.03350
C616        C  0.28940818  0.31722183  0.49481735    -0.10730
H617        H  0.42811058  0.33772622  0.49876070     0.08950
H618        H  0.49918064  0.20156437  0.47509955     0.06480
H619        H  0.32010924  0.33741884  0.49902055     0.06330
C620        C  0.24893105  0.34302421  0.75342988     0.03360
C621        C  0.45853975  0.31639371  0.75545353    -0.12790
C622        C  0.45773853  0.26407227  0.76215980     0.00860
C623        C  0.24866484  0.23923848  0.76722676    -0.11310
C624        C  0.28969528  0.26388634  0.76212609     0.03350
C625        C  0.28912553  0.31610071  0.75528877    -0.10730
H626        H  0.42788610  0.33679789  0.75140591     0.08950
H627        H  0.24858804  0.20043199  0.77504366     0.06480
H628        H  0.31988591  0.33625119  0.75104531     0.06330
O629        O  0.46284882  0.50105587  0.95502288    -0.72710
O630        O  0.46288614  0.50118871  0.54535138    -0.73690
O631        O  0.46363077  0.57706083  0.49997347    -0.62310
O632        O  0.46245862  0.42464491  0.50012228    -0.70720
O633        O  0.28632504  0.42411370  0.49988121    -0.70270
O634        O  0.28749956  0.57635398  0.49985968    -0.61530
O635        O  0.28675529  0.49999705  0.54533615    -0.74040
O636        O  0.28668208  0.50021322  0.95466506    -0.72820
Cu637      Cu  0.46040059  0.50097817  0.50022053     1.04560
Cu638      Cu  0.28943076  0.50016182  0.00002372     1.04330
C639        C  0.49964521  0.50079238  0.94045470     0.93490
C640        C  0.49973147  0.50078844  0.55969217     0.92630
C641        C  0.25075164  0.60088172  0.49937985     0.84770
C642        C  0.49927621  0.40019624  0.49947745     0.91040
O643        O  0.46327281  0.49999781  0.70466790    -0.72710
O644        O  0.46341492  0.49980736  0.79533862    -0.73690
O645        O  0.46371099  0.57588369  0.75012187    -0.62310
O646        O  0.46253659  0.42364368  0.75014614    -0.70720
O647        O  0.28640538  0.42293662  0.75002675    -0.70270
O648        O  0.28757740  0.57535283  0.74987538    -0.61530
O649        O  0.28724816  0.49896384  0.79497651    -0.74040
O650        O  0.28714197  0.49880650  0.70464801    -0.72820
Cu651      Cu  0.46065842  0.49985682  0.74998072     1.04560
Cu652      Cu  0.28963560  0.49901944  0.74977817     1.04330
C653        C  0.25029471  0.49920513  0.69030955     0.93490
C654        C  0.25045355  0.49922898  0.80954682     0.92630
C655        C  0.25075979  0.59980135  0.75052267     0.84770
C656        C  0.24928451  0.39911584  0.75062333     0.91040
C657        C  0.24947628  0.50081500  0.90696641    -0.05230
C658        C  0.28816806  0.48661966  0.89115893    -0.32660
C659        C  0.28892443  0.48544231  0.85959286     0.36590
C660        C  0.25062524  0.49920955  0.84303510    -0.05590
C661        C  0.46193393  0.51340588  0.85884266    -0.32560
C662        C  0.46117757  0.51458346  0.89040852     0.36490
H663        H  0.31795662  0.47565405  0.90329179     0.16860
O664        O  0.32727764  0.47031660  0.84527490    -0.60060
H665        H  0.43214520  0.52437150  0.84670998     0.16880
O666        O  0.42282438  0.52971003  0.90472619    -0.60150
H667        H  0.42582822  0.56696884  0.90716138     0.43880
H668        H  0.32427488  0.43305755  0.84284039     0.43830
C669        C  0.24958931  0.50086993  0.59309885    -0.05230
C670        C  0.28688054  0.48247467  0.60875008    -0.32660
C671        C  0.28742601  0.48117808  0.64029881     0.36590
C672        C  0.25043363  0.49911982  0.65690287    -0.05590
C673        C  0.46314180  0.51751396  0.64125172    -0.32560
C674        C  0.46259629  0.51881034  0.60970280     0.36490
H675        H  0.31556026  0.46820686  0.59649793     0.16860
O676        O  0.32411858  0.46161320  0.65457963    -0.60060
H677        H  0.43446227  0.53178186  0.65350403     0.16880
O678        O  0.42590365  0.53837450  0.59542174    -0.60150
H679        H  0.43255634  0.57495027  0.59255262     0.43880
H680        H  0.31746484  0.42503784  0.65744957     0.43830
C681        C  0.37609073  0.00048581  0.90702770    -0.05230
C682        C  0.33534974  0.99932015  0.89145377    -0.32660
C683        C  0.33401864  0.99867067  0.85988384     0.36590
C684        C  0.37400873  0.99953530  0.84297259    -0.05590
C685        C  0.41474991  0.00070110  0.85854643    -0.32560
C686        C  0.41608094  0.00135050  0.89011659     0.36490
H687        H  0.30410481  0.99873088  0.90375367     0.16860
O688        O  0.29328123  0.99780687  0.84593872    -0.60060
H689        H  0.44599463  0.00129032  0.84624629     0.16880
O690        O  0.45681805  0.00221413  0.90406209    -0.60150
H691        H  0.46536779  0.03855605  0.90482226     0.43880
H692        H  0.28473137  0.96146497  0.84517889     0.43830
C693        C  0.37522078  0.00047224  0.65682914    -0.05230
C694        C  0.34245524  0.97328037  0.64110780    -0.32660
C695        C  0.34227292  0.97233519  0.60954450     0.36590
C696        C  0.37480059  0.99952872  0.59317130    -0.05590
C697        C  0.40756537  0.02672146  0.60889271    -0.32560
C698        C  0.40774764  0.02766678  0.64045584     0.36490
H699        H  0.31739731  0.95185481  0.65334138     0.16860
O700        O  0.31075417  0.94380259  0.59496292    -0.60060
H701        H  0.43262355  0.04814685  0.59665925     0.16880
O702        O  0.43926638  0.05619966  0.65503724    -0.60150
H703        H  0.42491818  0.08963197  0.65858321     0.43880
H704        H  0.32510176  0.91036972  0.59141775     0.43830
O705        O  0.58814221  0.99897689  0.04551635    -0.72710
O706        O  0.58890547  0.00073427  0.45495059    -0.73690
O707        O  0.58896467  0.92403449  0.49975581    -0.62310
O708        O  0.58784863  0.07631777  0.00046260    -0.70720
O709        O  0.66171372  0.07698766  0.99999583    -0.70270
O710        O  0.66282329  0.92458165  0.50049310    -0.61530
O711        O  0.66267911  0.00051287  0.45512931    -0.74040
O712        O  0.66206768  0.00143525  0.04564264    -0.72820
Cu713      Cu  0.58587893  0.00001769  0.50026437     1.04560
Cu714      Cu  0.66490794  0.00091271  0.00041535     1.04330
C715        C  0.62499714  0.99992071  0.05987185     0.93490
C716        C  0.62595719  0.00062060  0.44060486     0.92630
C717        C  0.62607931  0.90015647  0.99958168     0.84770
C718        C  0.62455441  0.10081628  0.49969345     0.91040
O719        O  0.58802945  0.99858339  0.20435501    -0.72710
O720        O  0.58735033  0.99948316  0.29486926    -0.73690
O721        O  0.58721291  0.07541644  0.24950601    -0.62310
O722        O  0.58837594  0.92303042  0.25000115    -0.70720
O723        O  0.66224109  0.92370113  0.24954005    -0.70270
O724        O  0.66107140  0.07596352  0.25024798    -0.61530
O725        O  0.66112398  0.99926178  0.29505147    -0.74040
O726        O  0.66195488  0.00104245  0.20448628    -0.72820
Cu727      Cu  0.58518105  0.99910544  0.24958168     1.04560
Cu728      Cu  0.66415737  0.99998035  0.24973854     1.04330
C729        C  0.62510203  0.00009768  0.19012829     0.93490
C730        C  0.62407087  0.99937494  0.30939544     0.92630
C731        C  0.62400901  0.09986200  0.25041881     0.84770
C732        C  0.62548158  0.89918176  0.25030569     0.91040
C733        C  0.62424790  0.15692585  0.49685815     0.03360
C734        C  0.58388735  0.18357694  0.49481954    -0.12790
C735        C  0.58316181  0.23587377  0.48802081     0.00860
C736        C  0.62413824  0.26066754  0.48290054    -0.11310
C737        C  0.66511946  0.23603663  0.48802939     0.03350
C738        C  0.66447345  0.18383731  0.49493585    -0.10730
H739        H  0.55319320  0.16319883  0.49890264     0.08950
H740        H  0.62419047  0.29945382  0.97501466     0.06480
H741        H  0.69519232  0.16368911  0.49918703     0.06330
C742        C  0.62379955  0.15593699  0.25326126     0.03360
C743        C  0.58346437  0.18259574  0.25530232    -0.12790
C744        C  0.58272521  0.23481872  0.26213483     0.00860
C745        C  0.62366851  0.25959231  0.26724242    -0.11310
C746        C  0.66468215  0.23498323  0.26208767     0.03350
C747        C  0.66405019  0.18279946  0.25518201    -0.10730
H748        H  0.55279290  0.16227543  0.25119939     0.08950
H749        H  0.62362167  0.29832209  0.27513544     0.06480
H750        H  0.69479222  0.16263619  0.25092951     0.06330
C751        C  0.62628848  0.84408152  0.99673907     0.03360
C752        C  0.66662362  0.81742273  0.99469781    -0.12790
C753        C  0.66736275  0.76519989  0.98786497     0.00860
C754        C  0.62641943  0.74042646  0.98275724    -0.11310
C755        C  0.58540580  0.76503553  0.98791215     0.03350
C756        C  0.58603780  0.81721918  0.99481817    -0.10730
H757        H  0.69729512  0.83774288  0.99880091     0.08950
H758        H  0.62646626  0.70169681  0.97486399     0.06480
H759        H  0.55529577  0.83738245  0.99907069     0.06290
C760        C  0.62578775  0.84307218  0.25314114     0.03360
C761        C  0.66614821  0.81642105  0.25518015    -0.12790
C762        C  0.66687366  0.76412456  0.26197974     0.00860
C763        C  0.62589720  0.73933112  0.26710041    -0.11310
C764        C  0.58491601  0.76396188  0.26197115     0.03350
C765        C  0.58556211  0.81616090  0.25506382    -0.10730
H766        H  0.69684238  0.83679893  0.25109673     0.08950
H767        H  0.62589975  0.70056576  0.27498792     0.06480
H768        H  0.55484325  0.83630905  0.25081249     0.06330
C769        C  0.50115755  0.65699407  0.99657224     0.03360
C770        C  0.54154884  0.68362452  0.99454823    -0.12790
C771        C  0.54235005  0.73594559  0.98784096     0.00860
C772        C  0.50142373  0.76077913  0.98277357    -0.11310
C773        C  0.71039330  0.73613150  0.98787463     0.03350
C774        C  0.71096306  0.68391745  0.99471280    -0.10730
H775        H  0.57220252  0.66322054  0.99859613     0.08950
H776        H  0.75150052  0.79958526  0.97495601     0.06480
H777        H  0.68020268  0.66376711  0.99895652     0.06330
C778        C  0.50090528  0.65590735  0.25331158     0.03360
C779        C  0.71062732  0.68277613  0.25518473    -0.12790
C780        C  0.70992540  0.73501428  0.26197597     0.00860
C781        C  0.50088747  0.75966082  0.26708596    -0.11310
C782        C  0.54188271  0.73487303  0.26203572     0.03350
C783        C  0.54121327  0.68260276  0.25531185    -0.10730
H784        H  0.67992628  0.66257889  0.25098187     0.08950
H785        H  0.50085481  0.79843470  0.27490047     0.06480
H786        H  0.57192492  0.66227183  0.25124160     0.06330
C787        C  0.74918476  0.34411131  0.99669162     0.03360
C788        C  0.70887683  0.31741583  0.99469117    -0.12790
C789        C  0.70820745  0.26514589  0.98796642     0.00860
C790        C  0.74920272  0.24035841  0.98291576    -0.11310
C791        C  0.54016477  0.26500481  0.98802609     0.03350
C792        C  0.53946278  0.31724273  0.99481799    -0.10730
H793        H  0.67816515  0.33774655  0.99876168     0.08950
H794        H  0.74923542  0.20158489  0.97510064     0.06480
H795        H  0.57016380  0.33743995  0.99902098     0.06330
C796        C  0.49893051  0.34302455  0.25342710     0.03360
C797        C  0.70853916  0.31639421  0.25545114    -0.12790
C798        C  0.70773791  0.26407319  0.26215863     0.00860
C799        C  0.49866421  0.23923964  0.26722614    -0.11310
C800        C  0.53969465  0.26388712  0.26212496     0.03350
C801        C  0.53912495  0.31610108  0.25528659    -0.10730
H802        H  0.67788550  0.33679827  0.25140332     0.08950
H803        H  0.49858741  0.20043364  0.27504391     0.06480
H804        H  0.56988534  0.33625132  0.25104277     0.06330
O805        O  0.71279676  0.50103612  0.45502195    -0.72710
O806        O  0.71293869  0.50120985  0.04535043    -0.73690
O807        O  0.71368331  0.57708139  0.99997299    -0.62310
O808        O  0.71251245  0.42466529  0.00012267    -0.70720
O809        O  0.53637888  0.42413483  0.99988136    -0.70270
O810        O  0.53755210  0.57637497  0.99985902    -0.61530
O811        O  0.53680783  0.50001893  0.04533683    -0.74040
O812        O  0.53663005  0.50019266  0.45466625    -0.72820
Cu813      Cu  0.71045358  0.50099857  0.00022051     1.04560
Cu814      Cu  0.53937778  0.50014069  0.50002398     1.04330
C815        C  0.74959426  0.50077201  0.44045482     0.93490
C816        C  0.74978313  0.50081055  0.05969203     0.92630
C817        C  0.50080410  0.60090249  0.99937913     0.84770
C818        C  0.74933027  0.40021698  0.99947785     0.91040
O819        O  0.71328933  0.50000294  0.20466233    -0.72710
O820        O  0.71339815  0.49980304  0.29533328    -0.73690
O821        O  0.71371084  0.57588425  0.25011887    -0.62310
O822        O  0.71253639  0.42364386  0.25013821    -0.70720
O823        O  0.53640518  0.42293717  0.25002985    -0.70270
O824        O  0.53757727  0.57535299  0.24988303    -0.61530
O825        O  0.53723143  0.49895993  0.29498190    -0.74040
O826        O  0.53715845  0.49881120  0.20465342    -0.72820
Cu827      Cu  0.71065825  0.49985720  0.24997478     1.04560
Cu828      Cu  0.53963543  0.49901980  0.24978403     1.04330
C829        C  0.50031596  0.49921245  0.19030947     0.93490
C830        C  0.50043217  0.49922259  0.30954688     0.92630
C831        C  0.50075959  0.59980169  0.25052532     0.84770
C832        C  0.49928426  0.39911619  0.25062061     0.91040
C833        C  0.49942978  0.50079432  0.40696652    -0.05230
C834        C  0.53812497  0.48660053  0.39116241    -0.32660
C835        C  0.53888880  0.48542701  0.35959655     0.36590
C836        C  0.50059387  0.49919699  0.34303521    -0.05590
C837        C  0.71189821  0.51338977  0.35883924    -0.32560
C838        C  0.71113436  0.51456306  0.39040531     0.36490
H839        H  0.56791104  0.47563395  0.40329775     0.16860
O840        O  0.57724549  0.47030288  0.34528228    -0.60060
H841        H  0.68211231  0.52435635  0.34670372     0.16880
O842        O  0.67277766  0.52968634  0.40471988    -0.60150
H843        H  0.67577920  0.56694519  0.40715613     0.43880
H844        H  0.57424291  0.43304425  0.34284539     0.43830
C845        C  0.49963699  0.50089306  0.09309872    -0.05230
C846        C  0.53692474  0.48249629  0.10875311    -0.32660
C847        C  0.53746236  0.48119538  0.14030205     0.36590
C848        C  0.50046538  0.49913389  0.15690278    -0.05590
C849        C  0.71317824  0.51753184  0.14124831    -0.32560
C850        C  0.71264066  0.51883296  0.10969956     0.36490
H851        H  0.56560704  0.46822960  0.09650329     0.16860
O852        O  0.57415132  0.46162877  0.15458625    -0.60060
H853        H  0.68449576  0.53179845  0.15349798     0.16880
O854        O  0.67595179  0.53840031  0.09541559    -0.60150
H855        H  0.68260679  0.57497585  0.09254790     0.43880
H856        H  0.56749741  0.42505279  0.15745310     0.43830
C857        C  0.62604693  0.00046796  0.40702785    -0.05230
C858        C  0.58530931  0.99930330  0.39144983    -0.32660
C859        C  0.58398538  0.99865845  0.35987949     0.36590
C860        C  0.62397936  0.99952677  0.34297244    -0.05590
C861        C  0.66471680  0.00069125  0.35855054    -0.32560
C862        C  0.66604080  0.00133615  0.39012066     0.36490
H863        H  0.55406190  0.99871154  0.40374679     0.16860
O864        O  0.54325137  0.99779549  0.34592984    -0.60060
H865        H  0.69596441  0.00128306  0.34625381     0.16880
O866        O  0.70677510  0.00219923  0.40406996    -0.60150
H867        H  0.71532382  0.03854131  0.40483259     0.43880
H868        H  0.53470281  0.96145339  0.34516685     0.43830
C869        C  0.62525330  0.00047708  0.15682905    -0.05230
C870        C  0.59249224  0.97328616  0.14110311    -0.32660
C871        C  0.59231814  0.97234333  0.10953992     0.36590
C872        C  0.62484955  0.99953867  0.09317109    -0.05590
C873        C  0.65761128  0.02672882  0.10889694    -0.32560
C874        C  0.65778541  0.02767155  0.14046031     0.36490
H875        H  0.56743083  0.95186006  0.15333309     0.16860
O876        O  0.56080273  0.94381212  0.09495407    -0.60060
H877        H  0.68267244  0.04815509  0.09666685     0.16880
O878        O  0.68930077  0.05620258  0.15504631    -0.60150
H879        H  0.67495243  0.08963511  0.15859114     0.43880
H880        H  0.57515159  0.91038005  0.09140850     0.43830
O881        O  0.58808929  0.99895790  0.54551705    -0.72710
O882        O  0.58895620  0.00075582  0.95495191    -0.73690
O883        O  0.58901697  0.92405506  0.99975536    -0.62310
O884        O  0.58779502  0.07629690  0.50046160    -0.70720
O885        O  0.66166013  0.07696766  0.49999569    -0.70270
O886        O  0.66287562  0.92460192  0.00049161    -0.61530
O887        O  0.66272991  0.00053391  0.95512760    -0.74040
O888        O  0.66201476  0.00141721  0.54564234    -0.72820
Cu889      Cu  0.58593156  0.00003841  0.00026469     1.04560
Cu890      Cu  0.66485529  0.00089269  0.50041607     1.04330
C891        C  0.62494481  0.99990424  0.55987206     0.93490
C892        C  0.62600645  0.00064126  0.94060467     0.92630
C893        C  0.62602704  0.90013603  0.49958284     0.84770
C894        C  0.62460826  0.10083674  0.99969419     0.91040
O895        O  0.58801271  0.99858026  0.70436071    -0.72710
O896        O  0.58736619  0.99948584  0.79487450    -0.73690
O897        O  0.58721275  0.07541594  0.74951009    -0.62310
O898        O  0.58837587  0.92303022  0.75000799    -0.70720
O899        O  0.66224092  0.92370063  0.74953619    -0.70270
O900        O  0.66107152  0.07596335  0.75024137    -0.61530
O901        O  0.66113990  0.99926445  0.79504651    -0.74040
O902        O  0.66193822  0.00103934  0.70448076    -0.72820
Cu903      Cu  0.58518082  0.99910509  0.74958761     1.04560
Cu904      Cu  0.66415724  0.99998000  0.74973284     1.04330
C905        C  0.62508050  0.00009381  0.69012837     0.93490
C906        C  0.62409111  0.99937919  0.80939560     0.92630
C907        C  0.62400909  0.09986168  0.75041741     0.84770
C908        C  0.62548155  0.89918142  0.75030731     0.91040
C909        C  0.62430228  0.15694639  0.99685914     0.03360
C910        C  0.58394189  0.18359776  0.99482071    -0.12790
C911        C  0.58321651  0.23589452  0.98802186     0.00860
C912        C  0.62419299  0.26068810  0.98290153    -0.11310
C913        C  0.66517416  0.23605702  0.98803036     0.03350
C914        C  0.66452800  0.18385761  0.99493670    -0.10730
H915        H  0.55324771  0.16321983  0.99890395     0.08950
H916        H  0.62413566  0.29943330  0.47501372     0.06480
H917        H  0.69524682  0.16370919  0.99918768     0.06330
C918        C  0.62380002  0.15593665  0.75326007     0.03360
C919        C  0.58346492  0.18259539  0.75530172    -0.12790
C920        C  0.58272583  0.23481795  0.76213525     0.00860
C921        C  0.62366915  0.25959116  0.76724331    -0.11310
C922        C  0.66468278  0.23498231  0.76208802     0.03350
C923        C  0.66405074  0.18279894  0.75518120    -0.10730
H924        H  0.55279342  0.16227536  0.75119840     0.08950
H925        H  0.62362232  0.29832044  0.77513719     0.06480
H926        H  0.69479277  0.16263578  0.75092849     0.06330
C927        C  0.62623620  0.84406099  0.49674055     0.03360
C928        C  0.66657130  0.81740216  0.49469937    -0.12790
C929        C  0.66731039  0.76517932  0.48786653     0.00860
C930        C  0.62636706  0.74040591  0.48275878    -0.11310
C931        C  0.58535344  0.76501496  0.48791369     0.03350
C932        C  0.58598548  0.81719864  0.49481969    -0.10730
H933        H  0.69724279  0.83772233  0.49880244     0.08950
H934        H  0.62641389  0.70167630  0.47486546     0.06480
H935        H  0.55524346  0.83736195  0.49907217     0.06290
C936        C  0.62578811  0.84307182  0.75314256     0.03360
C937        C  0.66614865  0.81642067  0.75518094    -0.12790
C938        C  0.66687417  0.76412376  0.76197947     0.00860
C939        C  0.62589774  0.73932993  0.76709967    -0.11310
C940        C  0.58491652  0.76396093  0.76197097     0.03350
C941        C  0.58556254  0.81616037  0.75506485    -0.10730
H942        H  0.69684279  0.83679882  0.75109789     0.08950
H943        H  0.62590031  0.70056407  0.77498629     0.06480
H944        H  0.55484368  0.83630863  0.75081375     0.06330
C945        C  0.50110518  0.65697336  0.49657333     0.03360
C946        C  0.54149647  0.68360381  0.49454945    -0.12790
C947        C  0.54229768  0.73592499  0.48784243     0.00860
C948        C  0.50137136  0.76075858  0.48277513    -0.11310
C949        C  0.71034093  0.73611092  0.48787611     0.03350
C950        C  0.71091069  0.68389680  0.49471407    -0.10730
H951        H  0.57215013  0.66319974  0.49859724     0.08950
H952        H  0.75144815  0.79956476  0.47495767     0.06480
H953        H  0.68015031  0.66374642  0.49895773     0.06330
C954        C  0.50090574  0.65590701  0.75330887     0.03360
C955        C  0.71062782  0.68277575  0.75518264    -0.12790
C956        C  0.70992592  0.73501347  0.76197496     0.00860
C957        C  0.50088800  0.75965962  0.76708549    -0.11310
C958        C  0.54188324  0.73487209  0.76203469     0.03350
C959        C  0.54121378  0.68260226  0.75530956    -0.10730
H960        H  0.67992677  0.66257874  0.75097942     0.08950
H961        H  0.50085532  0.79843299  0.77490089     0.06480
H962        H  0.57192544  0.66227146  0.75123911     0.06330
C963        C  0.74913028  0.34409061  0.49669096     0.03360
C964        C  0.70882223  0.31739538  0.49469026    -0.12790
C965        C  0.70815275  0.26512546  0.48796543     0.00860
C966        C  0.74914798  0.24033784  0.48291475    -0.11310
C967        C  0.54011007  0.26498405  0.48802519     0.03350
C968        C  0.53940818  0.31722183  0.49481735    -0.10730
H969        H  0.67811058  0.33772622  0.49876070     0.08950
H970        H  0.74918064  0.20156437  0.47509955     0.06480
H971        H  0.57010924  0.33741884  0.49902055     0.06330
C972        C  0.49893105  0.34302421  0.75342989     0.03360
C973        C  0.70853975  0.31639371  0.75545353    -0.12790
C974        C  0.70773853  0.26407227  0.76215980     0.00860
C975        C  0.49866484  0.23923848  0.76722676    -0.11310
C976        C  0.53969528  0.26388634  0.76212610     0.03350
C977        C  0.53912553  0.31610071  0.75528877    -0.10730
H978        H  0.67788610  0.33679789  0.75140591     0.08950
H979        H  0.49858804  0.20043199  0.77504366     0.06480
H980        H  0.56988591  0.33625119  0.75104531     0.06330
O981        O  0.71284882  0.50105587  0.95502288    -0.72710
O982        O  0.71288614  0.50118871  0.54535138    -0.73690
O983        O  0.71363077  0.57706083  0.49997346    -0.62310
O984        O  0.71245862  0.42464491  0.50012228    -0.70720
O985        O  0.53632504  0.42411370  0.49988121    -0.70270
O986        O  0.53749956  0.57635398  0.49985968    -0.61530
O987        O  0.53675529  0.49999705  0.54533615    -0.74040
O988        O  0.53668208  0.50021322  0.95466507    -0.72820
Cu989      Cu  0.71040059  0.50097817  0.50022053     1.04560
Cu990      Cu  0.53943076  0.50016182  0.00002372     1.04330
C991        C  0.74964521  0.50079238  0.94045470     0.93490
C992        C  0.74973147  0.50078844  0.55969217     0.92630
C993        C  0.50075164  0.60088172  0.49937985     0.84770
C994        C  0.74927621  0.40019624  0.49947745     0.91040
O995        O  0.71327281  0.49999782  0.70466789    -0.72710
O996        O  0.71341492  0.49980736  0.79533862    -0.73690
O997        O  0.71371099  0.57588369  0.75012187    -0.62310
O998        O  0.71253659  0.42364368  0.75014614    -0.70720
O999        O  0.53640538  0.42293662  0.75002675    -0.70270
O1000       O  0.53757740  0.57535283  0.74987538    -0.61530
O1001       O  0.53724816  0.49896384  0.79497651    -0.74040
O1002       O  0.53714197  0.49880650  0.70464802    -0.72820
Cu1003     Cu  0.71065842  0.49985682  0.74998072     1.04560
Cu1004     Cu  0.53963560  0.49901944  0.74977817     1.04330
C1005       C  0.50029471  0.49920513  0.69030956     0.93490
C1006       C  0.50045355  0.49922898  0.80954683     0.92630
C1007       C  0.50075979  0.59980135  0.75052267     0.84770
C1008       C  0.49928451  0.39911584  0.75062334     0.91040
C1009       C  0.49947628  0.50081500  0.90696641    -0.05230
C1010       C  0.53816806  0.48661969  0.89115894    -0.32660
C1011       C  0.53892444  0.48544234  0.85959286     0.36590
C1012       C  0.50062524  0.49920955  0.84303510    -0.05590
C1013       C  0.71193393  0.51340590  0.85884265    -0.32560
C1014       C  0.71117758  0.51458348  0.89040852     0.36490
H1015       H  0.56795663  0.47565410  0.90329179     0.16860
O1016       O  0.57727765  0.47031666  0.84527490    -0.60060
H1017       H  0.68214521  0.52437153  0.84670998     0.16880
O1018       O  0.67282439  0.52971006  0.90472619    -0.60150
H1019       H  0.67582824  0.56696887  0.90716138     0.43880
H1020       H  0.57427492  0.43305761  0.84284040     0.43830
C1021       C  0.49958931  0.50086993  0.59309885    -0.05230
C1022       C  0.53688054  0.48247465  0.60875008    -0.32660
C1023       C  0.53742601  0.48117806  0.64029881     0.36590
C1024       C  0.50043363  0.49911982  0.65690287    -0.05590
C1025       C  0.71314180  0.51751396  0.64125172    -0.32560
C1026       C  0.71259629  0.51881034  0.60970280     0.36490
H1027       H  0.56556025  0.46820683  0.59649793     0.16860
O1028       O  0.57411856  0.46161317  0.65457964    -0.60060
H1029       H  0.68446227  0.53178186  0.65350402     0.16880
O1030       O  0.67590365  0.53837450  0.59542174    -0.60150
H1031       H  0.68255634  0.57495027  0.59255262     0.43880
H1032       H  0.56746481  0.42503781  0.65744957     0.43830
C1033       C  0.62609072  0.00048581  0.90702770    -0.05230
C1034       C  0.58534974  0.99932015  0.89145377    -0.32660
C1035       C  0.58401864  0.99867067  0.85988385     0.36590
C1036       C  0.62400873  0.99953530  0.84297259    -0.05590
C1037       C  0.66474991  0.00070109  0.85854643    -0.32560
C1038       C  0.66608094  0.00135050  0.89011659     0.36490
H1039       H  0.55410481  0.99873089  0.90375367     0.16860
O1040       O  0.54328123  0.99780688  0.84593872    -0.60060
H1041       H  0.69599463  0.00129031  0.84624629     0.16880
O1042       O  0.70681805  0.00221412  0.90406209    -0.60150
H1043       H  0.71536780  0.03855604  0.90482226     0.43880
H1044       H  0.53473136  0.96146498  0.84517889     0.43830
C1045       C  0.62522078  0.00047224  0.65682914    -0.05230
C1046       C  0.59245527  0.97328032  0.64110780    -0.32660
C1047       C  0.59227296  0.97233514  0.60954450     0.36590
C1048       C  0.62480059  0.99952872  0.59317130    -0.05590
C1049       C  0.65756534  0.02672151  0.60889272    -0.32560
C1050       C  0.65774761  0.02766683  0.64045584     0.36490
H1051       H  0.56739737  0.95185472  0.65334138     0.16860
O1052       O  0.56075424  0.94380249  0.59496292    -0.60060
H1053       H  0.68262350  0.04814694  0.59665926     0.16880
O1054       O  0.68926631  0.05619976  0.65503724    -0.60150
H1055       H  0.67491807  0.08963205  0.65858321     0.43880
H1056       H  0.57510187  0.91036964  0.59141775     0.43830
O1057       O  0.83814221  0.99897688  0.04551635    -0.72710
O1058       O  0.83890547  0.00073427  0.45495059    -0.73690
O1059       O  0.83896467  0.92403449  0.49975581    -0.62310
O1060       O  0.83784863  0.07631777  0.00046260    -0.70720
O1061       O  0.91171372  0.07698766  0.99999583    -0.70270
O1062       O  0.91282329  0.92458165  0.50049310    -0.61530
O1063       O  0.91267911  0.00051287  0.45512931    -0.74040
O1064       O  0.91206768  0.00143525  0.04564264    -0.72820
Cu1065     Cu  0.83587893  0.00001769  0.50026437     1.04560
Cu1066     Cu  0.91490794  0.00091271  0.00041535     1.04330
C1067       C  0.87499714  0.99992071  0.05987185     0.93490
C1068       C  0.87595720  0.00062060  0.44060486     0.92630
C1069       C  0.87607931  0.90015647  0.99958168     0.84770
C1070       C  0.87455441  0.10081628  0.49969345     0.91040
O1071       O  0.83802945  0.99858338  0.20435501    -0.72710
O1072       O  0.83735033  0.99948316  0.29486926    -0.73690
O1073       O  0.83721290  0.07541644  0.24950601    -0.62310
O1074       O  0.83837594  0.92303041  0.25000115    -0.70720
O1075       O  0.91224109  0.92370113  0.24954005    -0.70270
O1076       O  0.91107140  0.07596352  0.25024798    -0.61530
O1077       O  0.91112398  0.99926178  0.29505146    -0.74040
O1078       O  0.91195487  0.00104245  0.20448627    -0.72820
Cu1079     Cu  0.83518105  0.99910544  0.24958168     1.04560
Cu1080     Cu  0.91415737  0.99998036  0.24973854     1.04330
C1081       C  0.87510203  0.00009768  0.19012828     0.93490
C1082       C  0.87407087  0.99937494  0.30939544     0.92630
C1083       C  0.87400901  0.09986200  0.25041880     0.84770
C1084       C  0.87548158  0.89918176  0.25030568     0.91040
C1085       C  0.87424790  0.15692585  0.49685815     0.03360
C1086       C  0.83388735  0.18357694  0.49481954    -0.12790
C1087       C  0.83316181  0.23587377  0.48802081     0.00860
C1088       C  0.87413824  0.26066754  0.48290054    -0.11310
C1089       C  0.91511946  0.23603663  0.48802939     0.03350
C1090       C  0.91447345  0.18383731  0.49493585    -0.10730
H1091       H  0.80319320  0.16319883  0.49890264     0.08950
H1092       H  0.87419047  0.29945382  0.97501466     0.06480
H1093       H  0.94519232  0.16368911  0.49918703     0.06330
C1094       C  0.87379955  0.15593699  0.25326126     0.03360
C1095       C  0.83346437  0.18259574  0.25530232    -0.12790
C1096       C  0.83272521  0.23481872  0.26213483     0.00860
C1097       C  0.87366851  0.25959231  0.26724242    -0.11310
C1098       C  0.91468215  0.23498323  0.26208766     0.03350
C1099       C  0.91405019  0.18279946  0.25518201    -0.10730
H1100       H  0.80279290  0.16227543  0.25119939     0.08950
H1101       H  0.87362167  0.29832209  0.27513544     0.06480
H1102       H  0.94479222  0.16263619  0.25092950     0.06330
C1103       C  0.87628849  0.84408152  0.99673907     0.03360
C1104       C  0.91662363  0.81742273  0.99469781    -0.12790
C1105       C  0.91736275  0.76519989  0.98786497     0.00860
C1106       C  0.87641943  0.74042646  0.98275724    -0.11310
C1107       C  0.83540580  0.76503553  0.98791214     0.03350
C1108       C  0.83603780  0.81721918  0.99481817    -0.10730
H1109       H  0.94729512  0.83774288  0.99880091     0.08950
H1110       H  0.87646626  0.70169681  0.97486398     0.06480
H1111       H  0.80529577  0.83738245  0.99907069     0.06290
C1112       C  0.87578775  0.84307218  0.25314114     0.03360
C1113       C  0.91614821  0.81642105  0.25518015    -0.12790
C1114       C  0.91687366  0.76412456  0.26197974     0.00860
C1115       C  0.87589720  0.73933112  0.26710041    -0.11310
C1116       C  0.83491601  0.76396188  0.26197115     0.03350
C1117       C  0.83556211  0.81616090  0.25506382    -0.10730
H1118       H  0.94684238  0.83679893  0.25109673     0.08950
H1119       H  0.87589975  0.70056576  0.27498792     0.06480
H1120       H  0.80484325  0.83630905  0.25081249     0.06330
C1121       C  0.75115755  0.65699407  0.99657224     0.03360
C1122       C  0.79154884  0.68362452  0.99454823    -0.12790
C1123       C  0.79235005  0.73594559  0.98784096     0.00860
C1124       C  0.75142373  0.76077913  0.98277357    -0.11310
C1125       C  0.96039330  0.73613150  0.98787463     0.03350
C1126       C  0.96096306  0.68391745  0.99471280    -0.10730
H1127       H  0.82220253  0.66322054  0.99859612     0.08950
H1128       H  0.00150052  0.79958526  0.97495601     0.06480
H1129       H  0.93020268  0.66376711  0.99895651     0.06330
C1130       C  0.75090527  0.65590735  0.25331158     0.03360
C1131       C  0.96062732  0.68277613  0.25518473    -0.12790
C1132       C  0.95992540  0.73501428  0.26197597     0.00860
C1133       C  0.75088747  0.75966082  0.26708596    -0.11310
C1134       C  0.79188271  0.73487303  0.26203572     0.03350
C1135       C  0.79121327  0.68260276  0.25531185    -0.10730
H1136       H  0.92992628  0.66257889  0.25098187     0.08950
H1137       H  0.75085481  0.79843470  0.27490046     0.06480
H1138       H  0.82192492  0.66227183  0.25124160     0.06330
C1139       C  0.99918476  0.34411131  0.99669162     0.03360
C1140       C  0.95887683  0.31741583  0.99469117    -0.12790
C1141       C  0.95820745  0.26514589  0.98796642     0.00860
C1142       C  0.99920272  0.24035841  0.98291576    -0.11310
C1143       C  0.79016477  0.26500481  0.98802609     0.03350
C1144       C  0.78946278  0.31724273  0.99481799    -0.10730
H1145       H  0.92816515  0.33774655  0.99876168     0.08950
H1146       H  0.99923542  0.20158489  0.97510064     0.06480
H1147       H  0.82016380  0.33743995  0.99902098     0.06330
C1148       C  0.74893051  0.34302455  0.25342710     0.03360
C1149       C  0.95853916  0.31639421  0.25545113    -0.12790
C1150       C  0.95773791  0.26407319  0.26215862     0.00860
C1151       C  0.74866421  0.23923964  0.26722613    -0.11310
C1152       C  0.78969465  0.26388712  0.26212496     0.03350
C1153       C  0.78912494  0.31610108  0.25528659    -0.10730
H1154       H  0.92788550  0.33679827  0.25140332     0.08950
H1155       H  0.74858741  0.20043364  0.27504391     0.06480
H1156       H  0.81988534  0.33625132  0.25104277     0.06330
O1157       O  0.96279676  0.50103612  0.45502195    -0.72710
O1158       O  0.96293869  0.50120985  0.04535042    -0.73690
O1159       O  0.96368331  0.57708139  0.99997299    -0.62310
O1160       O  0.96251245  0.42466529  0.00012267    -0.70720
O1161       O  0.78637888  0.42413483  0.99988136    -0.70270
O1162       O  0.78755210  0.57637497  0.99985902    -0.61530
O1163       O  0.78680783  0.50001893  0.04533683    -0.74040
O1164       O  0.78663005  0.50019266  0.45466625    -0.72820
Cu1165     Cu  0.96045358  0.50099857  0.00022051     1.04560
Cu1166     Cu  0.78937778  0.50014069  0.50002398     1.04330
C1167       C  0.99959426  0.50077201  0.44045482     0.93490
C1168       C  0.99978313  0.50081055  0.05969203     0.92630
C1169       C  0.75080410  0.60090249  0.99937913     0.84770
C1170       C  0.99933027  0.40021698  0.99947785     0.91040
O1171       O  0.96328933  0.50000295  0.20466233    -0.72710
O1172       O  0.96339815  0.49980304  0.29533328    -0.73690
O1173       O  0.96371084  0.57588425  0.25011887    -0.62310
O1174       O  0.96253639  0.42364386  0.25013820    -0.70720
O1175       O  0.78640518  0.42293717  0.25002985    -0.70270
O1176       O  0.78757727  0.57535299  0.24988302    -0.61530
O1177       O  0.78723143  0.49895992  0.29498189    -0.74040
O1178       O  0.78715845  0.49881120  0.20465342    -0.72820
Cu1179     Cu  0.96065825  0.49985720  0.24997478     1.04560
Cu1180     Cu  0.78963543  0.49901980  0.24978402     1.04330
C1181       C  0.75031596  0.49921245  0.19030947     0.93490
C1182       C  0.75043216  0.49922259  0.30954688     0.92630
C1183       C  0.75075959  0.59980169  0.25052531     0.84770
C1184       C  0.74928426  0.39911619  0.25062061     0.91040
C1185       C  0.74942978  0.50079432  0.40696652    -0.05230
C1186       C  0.78812497  0.48660052  0.39116240    -0.32660
C1187       C  0.78888880  0.48542700  0.35959655     0.36590
C1188       C  0.75059387  0.49919699  0.34303521    -0.05590
C1189       C  0.96189821  0.51338978  0.35883924    -0.32560
C1190       C  0.96113436  0.51456307  0.39040531     0.36490
H1191       H  0.81791104  0.47563392  0.40329775     0.16860
O1192       O  0.82724548  0.47030285  0.34528227    -0.60060
H1193       H  0.93211231  0.52435637  0.34670372     0.16880
O1194       O  0.92277767  0.52968636  0.40471988    -0.60150
H1195       H  0.92577922  0.56694521  0.40715613     0.43880
H1196       H  0.82424289  0.43304422  0.34284538     0.43830
C1197       C  0.74963699  0.50089306  0.09309872    -0.05230
C1198       C  0.78692474  0.48249629  0.10875311    -0.32660
C1199       C  0.78746237  0.48119538  0.14030205     0.36590
C1200       C  0.75046538  0.49913389  0.15690278    -0.05590
C1201       C  0.96317825  0.51753185  0.14124831    -0.32560
C1202       C  0.96264067  0.51883297  0.10969956     0.36490
H1203       H  0.81560705  0.46822960  0.09650329     0.16860
O1204       O  0.82415133  0.46162877  0.15458625    -0.60060
H1205       H  0.93449576  0.53179846  0.15349798     0.16880
O1206       O  0.92595180  0.53840032  0.09541559    -0.60150
H1207       H  0.93260680  0.57497587  0.09254790     0.43880
H1208       H  0.81749742  0.42505279  0.15745310     0.43830
C1209       C  0.87604693  0.00046796  0.40702785    -0.05230
C1210       C  0.83530932  0.99930326  0.39144983    -0.32660
C1211       C  0.83398538  0.99865842  0.35987948     0.36590
C1212       C  0.87397936  0.99952677  0.34297244    -0.05590
C1213       C  0.91471680  0.00069129  0.35855054    -0.32560
C1214       C  0.91604080  0.00133619  0.39012066     0.36490
H1215       H  0.80406190  0.99871147  0.40374678     0.16860
O1216       O  0.79325137  0.99779541  0.34592984    -0.60060
H1217       H  0.94596441  0.00128313  0.34625381     0.16880
O1218       O  0.95677510  0.00219932  0.40406995    -0.60150
H1219       H  0.96532379  0.03854140  0.40483259     0.43880
H1220       H  0.78470285  0.96145330  0.34516685     0.43830
C1221       C  0.87525329  0.00047708  0.15682904    -0.05230
C1222       C  0.84249226  0.97328613  0.14110311    -0.32660
C1223       C  0.84231816  0.97234330  0.10953991     0.36590
C1224       C  0.87484955  0.99953867  0.09317108    -0.05590
C1225       C  0.90761125  0.02672886  0.10889694    -0.32560
C1226       C  0.90778538  0.02767159  0.14046030     0.36490
H1227       H  0.81743087  0.95186000  0.15333309     0.16860
O1228       O  0.81080278  0.94381205  0.09495407    -0.60060
H1229       H  0.93267240  0.04815515  0.09666685     0.16880
O1230       O  0.93930072  0.05620265  0.15504631    -0.60150
H1231       H  0.92495234  0.08963517  0.15859114     0.43880
H1232       H  0.82515167  0.91038000  0.09140849     0.43830
O1233       O  0.83808929  0.99895789  0.54551705    -0.72710
O1234       O  0.83895620  0.00075582  0.95495191    -0.73690
O1235       O  0.83901697  0.92405506  0.99975536    -0.62310
O1236       O  0.83779502  0.07629690  0.50046159    -0.70720
O1237       O  0.91166013  0.07696766  0.49999569    -0.70270
O1238       O  0.91287562  0.92460192  0.00049161    -0.61530
O1239       O  0.91272991  0.00053391  0.95512760    -0.74040
O1240       O  0.91201476  0.00141721  0.54564234    -0.72820
Cu1241     Cu  0.83593156  0.00003841  0.00026469     1.04560
Cu1242     Cu  0.91485529  0.00089269  0.50041607     1.04330
C1243       C  0.87494481  0.99990424  0.55987206     0.93490
C1244       C  0.87600645  0.00064126  0.94060467     0.92630
C1245       C  0.87602704  0.90013603  0.49958283     0.84770
C1246       C  0.87460826  0.10083674  0.99969418     0.91040
O1247       O  0.83801270  0.99858026  0.70436071    -0.72710
O1248       O  0.83736619  0.99948584  0.79487450    -0.73690
O1249       O  0.83721274  0.07541594  0.74951009    -0.62310
O1250       O  0.83837587  0.92303022  0.75000798    -0.70720
O1251       O  0.91224092  0.92370063  0.74953618    -0.70270
O1252       O  0.91107152  0.07596335  0.75024137    -0.61530
O1253       O  0.91113990  0.99926445  0.79504651    -0.74040
O1254       O  0.91193822  0.00103934  0.70448075    -0.72820
Cu1255     Cu  0.83518082  0.99910508  0.74958761     1.04560
Cu1256     Cu  0.91415724  0.99998000  0.74973283     1.04330
C1257       C  0.87508050  0.00009381  0.69012837     0.93490
C1258       C  0.87409112  0.99937919  0.80939560     0.92630
C1259       C  0.87400909  0.09986168  0.75041740     0.84770
C1260       C  0.87548155  0.89918142  0.75030731     0.91040
C1261       C  0.87430228  0.15694639  0.99685914     0.03360
C1262       C  0.83394189  0.18359776  0.99482071    -0.12790
C1263       C  0.83321651  0.23589452  0.98802186     0.00860
C1264       C  0.87419299  0.26068810  0.98290153    -0.11310
C1265       C  0.91517416  0.23605702  0.98803036     0.03350
C1266       C  0.91452800  0.18385761  0.99493670    -0.10730
H1267       H  0.80324771  0.16321983  0.99890395     0.08950
H1268       H  0.87413566  0.29943330  0.47501372     0.06480
H1269       H  0.94524682  0.16370919  0.99918768     0.06330
C1270       C  0.87380002  0.15593665  0.75326007     0.03360
C1271       C  0.83346492  0.18259539  0.75530171    -0.12790
C1272       C  0.83272583  0.23481795  0.76213525     0.00860
C1273       C  0.87366915  0.25959116  0.76724331    -0.11310
C1274       C  0.91468278  0.23498231  0.76208801     0.03350
C1275       C  0.91405074  0.18279894  0.75518119    -0.10730
H1276       H  0.80279342  0.16227536  0.75119840     0.08950
H1277       H  0.87362232  0.29832044  0.77513718     0.06480
H1278       H  0.94479277  0.16263578  0.75092848     0.06330
C1279       C  0.87623620  0.84406099  0.49674055     0.03360
C1280       C  0.91657130  0.81740216  0.49469936    -0.12790
C1281       C  0.91731039  0.76517932  0.48786652     0.00860
C1282       C  0.87636706  0.74040591  0.48275877    -0.11310
C1283       C  0.83535344  0.76501496  0.48791369     0.03350
C1284       C  0.83598548  0.81719864  0.49481969    -0.10730
H1285       H  0.94724279  0.83772233  0.49880244     0.08950
H1286       H  0.87641389  0.70167630  0.47486546     0.06480
H1287       H  0.80524346  0.83736195  0.49907217     0.06290
C1288       C  0.87578811  0.84307182  0.75314255     0.03360
C1289       C  0.91614865  0.81642067  0.75518094    -0.12790
C1290       C  0.91687417  0.76412376  0.76197947     0.00860
C1291       C  0.87589774  0.73932993  0.76709966    -0.11310
C1292       C  0.83491652  0.76396093  0.76197096     0.03350
C1293       C  0.83556254  0.81616037  0.75506485    -0.10730
H1294       H  0.94684279  0.83679882  0.75109789     0.08950
H1295       H  0.87590031  0.70056407  0.77498629     0.06480
H1296       H  0.80484368  0.83630863  0.75081374     0.06330
C1297       C  0.75110518  0.65697336  0.49657332     0.03360
C1298       C  0.79149647  0.68360381  0.49454945    -0.12790
C1299       C  0.79229768  0.73592499  0.48784243     0.00860
C1300       C  0.75137136  0.76075858  0.48277513    -0.11310
C1301       C  0.96034093  0.73611092  0.48787611     0.03350
C1302       C  0.96091069  0.68389680  0.49471407    -0.10730
H1303       H  0.82215013  0.66319974  0.49859723     0.08950
H1304       H  0.00144815  0.79956476  0.47495767     0.06480
H1305       H  0.93015031  0.66374642  0.49895773     0.06330
C1306       C  0.75090574  0.65590702  0.75330886     0.03360
C1307       C  0.96062782  0.68277575  0.75518264    -0.12790
C1308       C  0.95992592  0.73501347  0.76197496     0.00860
C1309       C  0.75088800  0.75965962  0.76708549    -0.11310
C1310       C  0.79188324  0.73487209  0.76203469     0.03350
C1311       C  0.79121378  0.68260226  0.75530956    -0.10730
H1312       H  0.92992677  0.66257874  0.75097942     0.08950
H1313       H  0.75085532  0.79843299  0.77490089     0.06480
H1314       H  0.82192544  0.66227146  0.75123911     0.06330
C1315       C  0.99913028  0.34409061  0.49669096     0.03360
C1316       C  0.95882223  0.31739538  0.49469026    -0.12790
C1317       C  0.95815275  0.26512546  0.48796543     0.00860
C1318       C  0.99914798  0.24033784  0.48291475    -0.11310
C1319       C  0.79011007  0.26498404  0.48802519     0.03350
C1320       C  0.78940818  0.31722183  0.49481735    -0.10730
H1321       H  0.92811058  0.33772622  0.49876070     0.08950
H1322       H  0.99918064  0.20156437  0.47509955     0.06480
H1323       H  0.82010924  0.33741884  0.49902055     0.06330
C1324       C  0.74893105  0.34302421  0.75342988     0.03360
C1325       C  0.95853975  0.31639371  0.75545353    -0.12790
C1326       C  0.95773853  0.26407227  0.76215980     0.00860
C1327       C  0.74866484  0.23923848  0.76722676    -0.11310
C1328       C  0.78969528  0.26388634  0.76212609     0.03350
C1329       C  0.78912553  0.31610071  0.75528877    -0.10730
H1330       H  0.92788610  0.33679789  0.75140590     0.08950
H1331       H  0.74858804  0.20043199  0.77504366     0.06480
H1332       H  0.81988591  0.33625119  0.75104531     0.06330
O1333       O  0.96284882  0.50105587  0.95502288    -0.72710
O1334       O  0.96288614  0.50118871  0.54535138    -0.73690
O1335       O  0.96363077  0.57706083  0.49997346    -0.62310
O1336       O  0.96245862  0.42464491  0.50012228    -0.70720
O1337       O  0.78632504  0.42411370  0.49988121    -0.70270
O1338       O  0.78749956  0.57635398  0.49985968    -0.61530
O1339       O  0.78675529  0.49999705  0.54533615    -0.74040
O1340       O  0.78668208  0.50021322  0.95466506    -0.72820
Cu1341     Cu  0.96040059  0.50097817  0.50022053     1.04560
Cu1342     Cu  0.78943076  0.50016182  0.00002372     1.04330
C1343       C  0.99964521  0.50079238  0.94045470     0.93490
C1344       C  0.99973147  0.50078844  0.55969217     0.92630
C1345       C  0.75075164  0.60088172  0.49937985     0.84770
C1346       C  0.99927621  0.40019624  0.49947745     0.91040
O1347       O  0.96327281  0.49999782  0.70466789    -0.72710
O1348       O  0.96341492  0.49980736  0.79533862    -0.73690
O1349       O  0.96371099  0.57588369  0.75012187    -0.62310
O1350       O  0.96253659  0.42364368  0.75014614    -0.70720
O1351       O  0.78640538  0.42293662  0.75002675    -0.70270
O1352       O  0.78757740  0.57535283  0.74987538    -0.61530
O1353       O  0.78724816  0.49896384  0.79497651    -0.74040
O1354       O  0.78714197  0.49880650  0.70464802    -0.72820
Cu1355     Cu  0.96065842  0.49985682  0.74998072     1.04560
Cu1356     Cu  0.78963560  0.49901944  0.74977817     1.04330
C1357       C  0.75029471  0.49920513  0.69030956     0.93490
C1358       C  0.75045354  0.49922898  0.80954682     0.92630
C1359       C  0.75075979  0.59980135  0.75052267     0.84770
C1360       C  0.74928451  0.39911584  0.75062334     0.91040
C1361       C  0.74947628  0.50081500  0.90696641    -0.05230
C1362       C  0.78816806  0.48661967  0.89115893    -0.32660
C1363       C  0.78892443  0.48544232  0.85959286     0.36590
C1364       C  0.75062524  0.49920955  0.84303510    -0.05590
C1365       C  0.96193393  0.51340591  0.85884265    -0.32560
C1366       C  0.96117758  0.51458349  0.89040852     0.36490
H1367       H  0.81795662  0.47565407  0.90329179     0.16860
O1368       O  0.82727764  0.47031662  0.84527490    -0.60060
H1369       H  0.93214521  0.52437155  0.84670998     0.16880
O1370       O  0.92282439  0.52971008  0.90472619    -0.60150
H1371       H  0.92582826  0.56696889  0.90716138     0.43880
H1372       H  0.82427489  0.43305758  0.84284039     0.43830
C1373       C  0.74958931  0.50086993  0.59309885    -0.05230
C1374       C  0.78688054  0.48247465  0.60875008    -0.32660
C1375       C  0.78742601  0.48117806  0.64029881     0.36590
C1376       C  0.75043363  0.49911982  0.65690287    -0.05590
C1377       C  0.96314181  0.51751397  0.64125172    -0.32560
C1378       C  0.96259629  0.51881034  0.60970280     0.36490
H1379       H  0.81556025  0.46820683  0.59649793     0.16860
O1380       O  0.82411856  0.46161317  0.65457964    -0.60060
H1381       H  0.93446227  0.53178187  0.65350402     0.16880
O1382       O  0.92590366  0.53837451  0.59542174    -0.60150
H1383       H  0.93255635  0.57495028  0.59255262     0.43880
H1384       H  0.81746481  0.42503781  0.65744957     0.43830
C1385       C  0.87609073  0.00048581  0.90702769    -0.05230
C1386       C  0.83534974  0.99932012  0.89145377    -0.32660
C1387       C  0.83401864  0.99867063  0.85988384     0.36590
C1388       C  0.87400873  0.99953530  0.84297259    -0.05590
C1389       C  0.91474991  0.00070113  0.85854643    -0.32560
C1390       C  0.91608094  0.00135053  0.89011659     0.36490
H1391       H  0.80410482  0.99873082  0.90375367     0.16860
O1392       O  0.79328123  0.99780680  0.84593872    -0.60060
H1393       H  0.94599463  0.00129037  0.84624628     0.16880
O1394       O  0.95681805  0.00221420  0.90406209    -0.60150
H1395       H  0.96536776  0.03855613  0.90482226     0.43880
H1396       H  0.78473139  0.96146489  0.84517888     0.43830
C1397       C  0.87522077  0.00047224  0.65682913    -0.05230
C1398       C  0.84245529  0.97328029  0.64110779    -0.32660
C1399       C  0.84227298  0.97233510  0.60954449     0.36590
C1400       C  0.87480059  0.99952872  0.59317130    -0.05590
C1401       C  0.90756532  0.02672154  0.60889271    -0.32560
C1402       C  0.90774758  0.02766686  0.64045584     0.36490
H1403       H  0.81739741  0.95185466  0.65334137     0.16860
O1404       O  0.81075429  0.94380242  0.59496292    -0.60060
H1405       H  0.93262346  0.04814701  0.59665925     0.16880
O1406       O  0.93926626  0.05619984  0.65503724    -0.60150
H1407       H  0.92491798  0.08963210  0.65858322     0.43880
H1408       H  0.82510195  0.91036959  0.59141774     0.43830
loop_ 
_geom_bond_atom_site_label_1 
_geom_bond_atom_site_label_2 
_geom_bond_distance 
_geom_bond_site_symmetry_2 
_ccdc_geom_bond_type 
O1           C11   1.278       .  A
O1         Cu185   2.007   1_565  S
O2           C12   1.279       .  A
O2           Cu9   2.010       .  S
O3          C189   1.278       .  A
O3           Cu9   2.004   1_565  S
O4          C190   1.278   1_554  A
O4         Cu185   2.010       .  S
O5          C190   1.278       .  A
O5          Cu10   2.006   1_556  S
O6          C189   1.279       .  A
O6         Cu186   2.011   1_565  S
O7           C12   1.278       .  A
O7         Cu186   2.009       .  S
O8           C11   1.278   1_545  A
O8          Cu10   2.006       .  S
Cu9         O177   2.007   1_545  S
Cu9         O180   2.010       .  S
Cu9        Cu186   2.370       .  S
Cu10        O182   2.011   1_545  S
Cu10        O183   2.009   1_554  S
Cu10       Cu185   2.370       .  S
C11         C168   1.476       .  S
C12         C153   1.488       .  S
C13         O179   1.278       .  A
C13         O182   1.279   1_556  A
C13          C47   1.482       .  S
C14         O180   1.278       .  A
C14         O181   1.278       .  A
C14          C29   1.483       .  S
O15          C25   1.278   1_565  A
O15         Cu23   2.006       .  S
O16          C26   1.278       .  A
O16         Cu23   2.009       .  S
O17          C27   1.279       .  A
O17         Cu23   2.011   1_545  S
O18          C28   1.278       .  A
O18         Cu23   2.006       .  S
O19          C28   1.278       .  A
O19         Cu24   2.010       .  S
O20          C27   1.278       .  A
O20         Cu24   2.004   1_545  S
O21          C26   1.279       .  A
O21         Cu24   2.010       .  S
O22          C25   1.278       .  A
O22         Cu24   2.007   1_545  S
Cu23        Cu24   2.370       .  S
C25         C165   1.476       .  S
C26         C156   1.488       .  S
C27          C38   1.482       .  S
C28          C56   1.483       .  S
C29          C30   1.403       .  A
C29          C34   1.402       .  A
C30          C31   1.410       .  A
C30          H35   1.081       .  S
C31         C263   1.502       .  S
C31          C32   1.410       .  A
C32          C33   1.409       .  A
C32         H212   1.079       .  S
C33         C261   1.501       .  S
C33          C34   1.408       .  A
C34          H37   1.080       .  S
H36         C208   1.079       .  S
C38          C39   1.402       .  A
C38          C43   1.403       .  A
C39          C40   1.409       .  A
C39          H44   1.081       .  S
C40          C96   1.501       .  S
C40          C41   1.410       .  A
C41          C42   1.409       .  A
C41          H45   1.079       .  S
C42          C94   1.502       .  S
C42          C43   1.409       .  A
C43          H46   1.081       .  S
C47          C48   1.402       .  A
C47          C52   1.403       .  A
C48          C49   1.409       .  A
C48          H53   1.081       .  S
C49          C69   1.501       .  S
C49          C50   1.410       .  A
C50          C51   1.409       .  A
C50          H54   1.079       .  S
C51          C67   1.502       .  S
C51          C52   1.409       .  A
C52          H55   1.081       .  S
C56          C57   1.403       .  A
C56          C61   1.402       .  A
C57          C58   1.410       .  A
C57          H62   1.081       .  S
C58          C76   1.502       .  S
C58          C59   1.410       .  A
C59          C60   1.409       .  A
C59          H63   1.079       .  S
C60          C78   1.501       .  S
C60          C61   1.408       .  A
C61          H64   1.080       .  S
C65         C113   1.482       .  S
C65          C66   1.403       .  A
C65        C1126   1.402   1_455  A
C66          C67   1.410       .  A
C66          H71   1.081       .  S
C67          C68   1.410       .  A
C68        C1125   1.409   1_455  A
C68        H1128   1.079       .  S
C69          C70   1.408       .  A
C69         C420   1.409       .  A
C70         C417   1.402       .  A
C70          H73   1.080       .  S
H72         C420   1.079       .  S
C74         C127   1.483       .  S
C74          C79   1.402       .  A
C74        C1131   1.403   1_455  A
C75          C76   1.409       .  A
C75         C426   1.403       .  A
C75          H80   1.081       .  S
C76         C429   1.409       .  A
C77          C78   1.410       .  A
C77        C1132   1.409   1_455  A
C77          H81   1.079       .  S
C78          C79   1.409       .  A
C79          H82   1.081       .  S
C83         C114   1.483       .  S
C83          C84   1.402       .  A
C83         C440   1.403       .  A
C84          C85   1.409       .  A
C84          H89   1.081       .  S
C85         C209   1.501       .  S
C85          C86   1.410       .  A
C86         C439   1.409       .  A
C86          H90   1.079       .  S
C87         C207   1.502       .  S
C87          C88   1.409       .  A
C87        C1142   1.409   1_455  A
C88        C1139   1.403   1_455  A
C88          H91   1.081       .  S
C92         C128   1.482       .  S
C92          C97   1.402   1_655  A
C92        C1149   1.403       .  A
C93          C94   1.410       .  A
C93         C444   1.403       .  A
C93          H98   1.081       .  S
C94         C447   1.410       .  A
C95          C96   1.409   1_655  A
C95        C1150   1.410       .  A
C95          H99   1.079       .  S
C96          C97   1.408       .  A
C97         H100   1.080       .  S
O101        C111   1.277       .  A
O101       Cu285   2.005       .  S
O102        C112   1.277       .  A
O102       Cu109   2.002       .  S
O103        C465   1.278       .  A
O103       Cu109   2.006   1_556  S
O104        C114   1.279   1_554  A
O104       Cu109   2.011       .  S
O105       C1170   1.278   1_455  A
O105       Cu286   2.004   1_556  S
O106        C113   1.278       .  A
O106       Cu286   2.008   1_556  S
O107       C1168   1.279   1_455  A
O107       Cu286   2.010       .  S
O108       C1167   1.279   1_455  A
O108       Cu110   2.013       .  S
Cu109       O277   2.005   1_554  S
Cu109      Cu638   2.370       .  S
Cu110       O281   2.004       .  S
Cu110       O282   2.008       .  S
Cu110       O283   2.010       .  S
Cu110     Cu1341   2.370   1_455  S
C111        O460   1.279       .  A
C111        C481   1.484       .  S
C112        O459   1.279       .  A
C112        C493   1.481       .  S
C113       O1159   1.278   1_455  A
C114        O457   1.278       .  A
O115        C477   1.279       .  A
O115       Cu123   2.010       .  S
O116        C478   1.279       .  A
O116       Cu123   2.013       .  S
O117        C479   1.278       .  A
O117       Cu123   2.004       .  S
O118        C480   1.278       .  A
O118       Cu123   2.008       .  S
O119        C128   1.278   1_455  A
O119       Cu124   2.006       .  S
O120        C127   1.279       .  A
O120       Cu124   2.011       .  S
O121        C126   1.277       .  A
O121       Cu124   2.005       .  S
O122        C125   1.277       .  A
O122       Cu124   2.002       .  S
Cu123      Cu476   2.370       .  S
Cu124     Cu1179   2.370   1_455  S
C125       O1171   1.279   1_455  A
C125        C144   1.481       .  S
C126       O1172   1.279   1_455  A
C126        C132   1.484       .  S
C127       O1173   1.278   1_455  A
C128       O1174   1.278       .  A
C129       C1167   1.484       .  S
C129        C130   1.405   1_655  A
C129       C1190   1.413       .  A
C130        C131   1.400       .  A
C130        H135   1.084       .  S
C131        C132   1.413       .  A
C131        O136   1.372       .  S
C132       C1189   1.405   1_455  A
C133        C134   1.400       .  A
C133        C484   1.405       .  A
C133        H137   1.084       .  S
C134        C481   1.413       .  A
C134        O138   1.372       .  S
O136        H140   0.992       .  S
O138        H139   0.992       .  S
C141       C1168   1.481       .  S
C141        C142   1.404   1_655  A
C141       C1202   1.412       .  A
C142        C143   1.399       .  A
C142        H147   1.084       .  S
C143        C144   1.412       .  A
C143        O148   1.372       .  S
C144       C1201   1.404   1_455  A
C145        C146   1.399       .  A
C145        C496   1.404       .  A
C145        H149   1.084       .  S
C146        C493   1.412       .  A
C146        O150   1.372       .  S
O148        H152   0.992       .  S
O150        H151   0.992       .  S
C153        C154   1.406   1_545  A
C153        C158   1.413       .  A
C154        C155   1.400       .  A
C154        H159   1.083       .  S
C155        C156   1.413       .  A
C155        O160   1.372       .  S
C156        C157   1.406   1_565  A
C157        C158   1.400       .  A
C157        H161   1.083       .  S
C158        O162   1.372       .  S
O160        H164   0.992       .  S
O162        H163   0.992       .  S
C165        C166   1.404   1_545  A
C165        C170   1.409       .  A
C166        C167   1.399       .  A
C166        H171   1.084       .  S
C167        C168   1.409       .  A
C167        O172   1.372       .  S
C168        C169   1.404   1_565  A
C169        C170   1.399       .  A
C169        H173   1.084       .  S
C170        O174   1.372       .  S
O172        H176   0.993       .  S
O174        H175   0.993       .  S
O177        C187   1.278       .  A
O178        C188   1.279       .  A
O178       Cu185   2.010   1_556  S
O179       Cu185   2.004   1_566  S
O181       Cu186   2.006       .  S
O183        C188   1.278       .  A
O184        C187   1.278   1_545  A
O184       Cu186   2.006       .  S
C187        C344   1.476       .  S
C188        C329   1.488       .  S
C189        C223   1.482       .  S
C190        C205   1.483       .  S
O191        C201   1.278   1_565  A
O191       Cu199   2.006       .  S
O192        C202   1.278       .  A
O192       Cu199   2.009       .  S
O193        C203   1.279       .  A
O193       Cu199   2.011   1_545  S
O194        C204   1.278       .  A
O194       Cu199   2.006       .  S
O195        C204   1.278       .  A
O195       Cu200   2.010       .  S
O196        C203   1.278       .  A
O196       Cu200   2.004   1_545  S
O197        C202   1.279       .  A
O197       Cu200   2.010       .  S
O198        C201   1.278       .  A
O198       Cu200   2.007   1_545  S
Cu199      Cu200   2.370       .  S
C201        C341   1.476       .  S
C202        C332   1.488       .  S
C203        C214   1.482       .  S
C204        C232   1.483       .  S
C205        C206   1.403       .  A
C205        C210   1.402       .  A
C206        C207   1.410       .  A
C206        H211   1.081       .  S
C207        C208   1.410       .  A
C208        C209   1.409       .  A
C209        C210   1.408       .  A
C210        H213   1.080       .  S
C214        C215   1.402       .  A
C214        C219   1.403       .  A
C215        C216   1.409       .  A
C215        H220   1.081       .  S
C216        C272   1.501       .  S
C216        C217   1.410       .  A
C217        C218   1.409       .  A
C217        H221   1.079       .  S
C218        C270   1.502       .  S
C218        C219   1.409       .  A
C219        H222   1.081       .  S
C223        C224   1.402       .  A
C223        C228   1.403       .  A
C224        C225   1.409       .  A
C224        H229   1.081       .  S
C225        C245   1.501       .  S
C225        C226   1.410       .  A
C226        C227   1.409       .  A
C226        H230   1.079       .  S
C227        C243   1.502       .  S
C227        C228   1.409       .  A
C228        H231   1.081       .  S
C232        C233   1.403       .  A
C232        C237   1.402       .  A
C233        C234   1.410       .  A
C233        H238   1.081       .  S
C234        C252   1.502       .  S
C234        C235   1.410       .  A
C235        C236   1.409       .  A
C235        H239   1.079       .  S
C236        C254   1.501       .  S
C236        C237   1.408       .  A
C237        H240   1.080       .  S
C241        C289   1.482       .  S
C241        C242   1.403       .  A
C241       C1302   1.402   1_455  A
C242        C243   1.410       .  A
C242        H247   1.081       .  S
C243        C244   1.410       .  A
C244       C1301   1.409   1_455  A
C244       H1304   1.079       .  S
C245        C596   1.409       .  A
C245        C246   1.408       .  A
C246        C593   1.402       .  A
C246        H249   1.080       .  S
H248        C596   1.079       .  S
C250        C303   1.483       .  S
C250       C1307   1.403   1_455  A
C250        C255   1.402       .  A
C251        C602   1.403       .  A
C251        C252   1.409       .  A
C251        H256   1.081       .  S
C252        C605   1.409       .  A
C253       C1308   1.409   1_455  A
C253        C254   1.410       .  A
C253        H257   1.079       .  S
C254        C255   1.409       .  A
C255        H258   1.081       .  S
C259        C290   1.483       .  S
C259        C260   1.402       .  A
C259        C616   1.403       .  A
C260        C261   1.409       .  A
C260        H265   1.081       .  S
C261        C262   1.410       .  A
C262        C615   1.409       .  A
C262        H266   1.079       .  S
C263       C1318   1.409   1_455  A
C263        C264   1.409       .  A
C264       C1315   1.403   1_455  A
C264        H267   1.081       .  S
C268        C304   1.482       .  S
C268       C1325   1.403       .  A
C268        C273   1.402   1_655  A
C269        C620   1.403       .  A
C269        C270   1.410       .  A
C269        H274   1.081       .  S
C270        C623   1.410       .  A
C271       C1326   1.410       .  A
C271        C272   1.409   1_655  A
C271        H275   1.079       .  S
C272        C273   1.408       .  A
C273        H276   1.080       .  S
O277        C287   1.277       .  A
O278        C288   1.277       .  A
O278       Cu285   2.002       .  S
O279        C641   1.278       .  A
O279       Cu285   2.006       .  S
O280        C290   1.279       .  A
O280       Cu285   2.011       .  S
O281       C1346   1.278   1_455  A
O282        C289   1.278       .  A
O283       C1344   1.279   1_455  A
O284       C1343   1.279   1_455  A
O284       Cu286   2.013   1_556  S
Cu285      Cu462   2.370       .  S
Cu286     Cu1165   2.370   1_455  S
C287        O636   1.279       .  A
C287        C657   1.484       .  S
C288        O635   1.279       .  A
C288        C669   1.481       .  S
C289       O1335   1.278   1_455  A
C290        O633   1.278       .  A
O291        C653   1.279       .  A
O291       Cu299   2.010       .  S
O292        C654   1.279       .  A
O292       Cu299   2.013       .  S
O293        C655   1.278       .  A
O293       Cu299   2.004       .  S
O294        C656   1.278       .  A
O294       Cu299   2.008       .  S
O295        C304   1.278   1_455  A
O295       Cu300   2.006       .  S
O296        C303   1.279       .  A
O296       Cu300   2.011       .  S
O297        C302   1.277       .  A
O297       Cu300   2.005       .  S
O298        C301   1.277       .  A
O298       Cu300   2.002       .  S
Cu299      Cu652   2.370       .  S
Cu300     Cu1355   2.370   1_455  S
C301       O1347   1.279   1_455  A
C301        C320   1.481       .  S
C302       O1348   1.279   1_455  A
C302        C308   1.484       .  S
C303       O1349   1.278   1_455  A
C304       O1350   1.278       .  A
C305       C1343   1.484       .  S
C305        C306   1.405   1_655  A
C305       C1366   1.413       .  A
C306        C307   1.400       .  A
C306        H311   1.084       .  S
C307        C308   1.413       .  A
C307        O312   1.372       .  S
C308       C1365   1.405   1_455  A
C309        C660   1.405       .  A
C309        C310   1.400       .  A
C309        H313   1.084       .  S
C310        C657   1.413       .  A
C310        O314   1.372       .  S
O312        H316   0.992       .  S
O314        H315   0.992       .  S
C317       C1344   1.481       .  S
C317        C318   1.404   1_655  A
C317       C1378   1.412       .  A
C318        C319   1.399       .  A
C318        H323   1.084       .  S
C319        C320   1.412       .  A
C319        O324   1.372       .  S
C320       C1377   1.404   1_455  A
C321        C672   1.404       .  A
C321        C322   1.399       .  A
C321        H325   1.084       .  S
C322        C669   1.412       .  A
C322        O326   1.372       .  S
O324        H328   0.992       .  S
O326        H327   0.992       .  S
C329        C330   1.406   1_545  A
C329        C334   1.413       .  A
C330        C331   1.400       .  A
C330        H335   1.083       .  S
C331        C332   1.413       .  A
C331        O336   1.372       .  S
C332        C333   1.406   1_565  A
C333        C334   1.400       .  A
C333        H337   1.083       .  S
C334        O338   1.372       .  S
O336        H340   0.992       .  S
O338        H339   0.992       .  S
C341        C342   1.404   1_545  A
C341        C346   1.409       .  A
C342        C343   1.399       .  A
C342        H347   1.084       .  S
C343        C344   1.409       .  A
C343        O348   1.372       .  S
C344        C345   1.404   1_565  A
C345        C346   1.399       .  A
C345        H349   1.084       .  S
C346        O350   1.372       .  S
O348        H352   0.993       .  S
O350        H351   0.993       .  S
O353        C363   1.278       .  A
O353       Cu537   2.007   1_565  S
O354        C364   1.279       .  A
O354       Cu361   2.010       .  S
O355        C541   1.278       .  A
O355       Cu361   2.004   1_565  S
O356        C542   1.278   1_554  A
O356       Cu537   2.010       .  S
O357        C542   1.278       .  A
O357       Cu362   2.006   1_556  S
O358        C541   1.279       .  A
O358       Cu538   2.011   1_565  S
O359        C364   1.278       .  A
O359       Cu538   2.009       .  S
O360        C363   1.278   1_545  A
O360       Cu362   2.006       .  S
Cu361       O529   2.007   1_545  S
Cu361       O532   2.010       .  S
Cu361      Cu538   2.370       .  S
Cu362       O534   2.011   1_545  S
Cu362       O535   2.009   1_554  S
Cu362      Cu537   2.370       .  S
C363        C520   1.476       .  S
C364        C505   1.488       .  S
C365        O531   1.278       .  A
C365        O534   1.279   1_556  A
C365        C399   1.482       .  S
C366        O532   1.278       .  A
C366        O533   1.278       .  A
C366        C381   1.483       .  S
O367        C377   1.278   1_565  A
O367       Cu375   2.006       .  S
O368        C378   1.278       .  A
O368       Cu375   2.009       .  S
O369        C379   1.279       .  A
O369       Cu375   2.011   1_545  S
O370        C380   1.278       .  A
O370       Cu375   2.006       .  S
O371        C380   1.278       .  A
O371       Cu376   2.010       .  S
O372        C379   1.278       .  A
O372       Cu376   2.004   1_545  S
O373        C378   1.279       .  A
O373       Cu376   2.010       .  S
O374        C377   1.278       .  A
O374       Cu376   2.007   1_545  S
Cu375      Cu376   2.370       .  S
C377        C517   1.476       .  S
C378        C508   1.488       .  S
C379        C390   1.482       .  S
C380        C408   1.483       .  S
C381        C382   1.403       .  A
C381        C386   1.402       .  A
C382        C383   1.410       .  A
C382        H387   1.081       .  S
C383        C615   1.502       .  S
C383        C384   1.410       .  A
C384        C385   1.409       .  A
C384        H564   1.079       .  S
C385        C613   1.501       .  S
C385        C386   1.408       .  A
C386        H389   1.080       .  S
H388        C560   1.079       .  S
C390        C391   1.402       .  A
C390        C395   1.403       .  A
C391        C392   1.409       .  A
C391        H396   1.081       .  S
C392        C448   1.501       .  S
C392        C393   1.410       .  A
C393        C394   1.409       .  A
C393        H397   1.079       .  S
C394        C446   1.502       .  S
C394        C395   1.409       .  A
C395        H398   1.081       .  S
C399        C400   1.402       .  A
C399        C404   1.403       .  A
C400        C401   1.409       .  A
C400        H405   1.081       .  S
C401        C421   1.501       .  S
C401        C402   1.410       .  A
C402        C403   1.409       .  A
C402        H406   1.079       .  S
C403        C419   1.502       .  S
C403        C404   1.409       .  A
C404        H407   1.081       .  S
C408        C409   1.403       .  A
C408        C413   1.402       .  A
C409        C410   1.410       .  A
C409        H414   1.081       .  S
C410        C428   1.502       .  S
C410        C411   1.410       .  A
C411        C412   1.409       .  A
C411        H415   1.079       .  S
C412        C430   1.501       .  S
C412        C413   1.408       .  A
C413        H416   1.080       .  S
C417        C465   1.482       .  S
C417        C418   1.403       .  A
C418        C419   1.410       .  A
C418        H423   1.081       .  S
C419        C420   1.410       .  A
C421        C772   1.409       .  A
C421        C422   1.408       .  A
C422        C769   1.402       .  A
C422        H425   1.080       .  S
H424        C772   1.079       .  S
C426        C479   1.483       .  S
C426        C431   1.402       .  A
C427        C778   1.403       .  A
C427        C428   1.409       .  A
C427        H432   1.081       .  S
C428        C781   1.409       .  A
C429        C430   1.410       .  A
C429        H433   1.079       .  S
C430        C431   1.409       .  A
C431        H434   1.081       .  S
C435        C466   1.483       .  S
C435        C436   1.402       .  A
C435        C792   1.403       .  A
C436        C437   1.409       .  A
C436        H441   1.081       .  S
C437        C561   1.501       .  S
C437        C438   1.410       .  A
C438        C791   1.409       .  A
C438        H442   1.079       .  S
C439        C559   1.502       .  S
C439        C440   1.409       .  A
C440        H443   1.081       .  S
C444        C480   1.482       .  S
C444        C449   1.402       .  A
C445        C796   1.403       .  A
C445        C446   1.410       .  A
C445        H450   1.081       .  S
C446        C799   1.410       .  A
C447        C448   1.409       .  A
C447        H451   1.079       .  S
C448        C449   1.408       .  A
C449        H452   1.080       .  S
O453        C463   1.277       .  A
O453       Cu637   2.005       .  S
O454        C464   1.277       .  A
O454       Cu461   2.002       .  S
O455        C817   1.278       .  A
O455       Cu461   2.006   1_556  S
O456        C466   1.279   1_554  A
O456       Cu461   2.011       .  S
O457       Cu638   2.004   1_556  S
O458        C465   1.278       .  A
O458       Cu638   2.008   1_556  S
O459       Cu638   2.010       .  S
O460       Cu462   2.013       .  S
Cu461       O629   2.005   1_554  S
Cu461      Cu990   2.370       .  S
Cu462       O633   2.004       .  S
Cu462       O634   2.008       .  S
Cu462       O635   2.010       .  S
C463        O812   1.279       .  A
C463        C833   1.484       .  S
C464        O811   1.279       .  A
C464        C845   1.481       .  S
C466        O809   1.278       .  A
O467        C829   1.279       .  A
O467       Cu475   2.010       .  S
O468        C830   1.279       .  A
O468       Cu475   2.013       .  S
O469        C831   1.278       .  A
O469       Cu475   2.004       .  S
O470        C832   1.278       .  A
O470       Cu475   2.008       .  S
O471        C480   1.278       .  A
O471       Cu476   2.006       .  S
O472        C479   1.279       .  A
O472       Cu476   2.011       .  S
O473        C478   1.277       .  A
O473       Cu476   2.005       .  S
O474        C477   1.277       .  A
O474       Cu476   2.002       .  S
Cu475      Cu828   2.370       .  S
C477        C496   1.481       .  S
C478        C484   1.484       .  S
C481        C482   1.405       .  A
C482        C483   1.400       .  A
C482        H487   1.084       .  S
C483        C484   1.413       .  A
C483        O488   1.372       .  S
C485        C836   1.405       .  A
C485        C486   1.400       .  A
C485        H489   1.084       .  S
C486        C833   1.413       .  A
C486        O490   1.372       .  S
O488        H492   0.992       .  S
O490        H491   0.992       .  S
C493        C494   1.404       .  A
C494        C495   1.399       .  A
C494        H499   1.084       .  S
C495        C496   1.412       .  A
C495        O500   1.372       .  S
C497        C848   1.404       .  A
C497        C498   1.399       .  A
C497        H501   1.084       .  S
C498        C845   1.412       .  A
C498        O502   1.372       .  S
O500        H504   0.992       .  S
O502        H503   0.992       .  S
C505        C506   1.406   1_545  A
C505        C510   1.413       .  A
C506        C507   1.400       .  A
C506        H511   1.083       .  S
C507        C508   1.413       .  A
C507        O512   1.372       .  S
C508        C509   1.406   1_565  A
C509        C510   1.400       .  A
C509        H513   1.083       .  S
C510        O514   1.372       .  S
O512        H516   0.992       .  S
O514        H515   0.992       .  S
C517        C518   1.404   1_545  A
C517        C522   1.409       .  A
C518        C519   1.399       .  A
C518        H523   1.084       .  S
C519        C520   1.409       .  A
C519        O524   1.372       .  S
C520        C521   1.404   1_565  A
C521        C522   1.399       .  A
C521        H525   1.084       .  S
C522        O526   1.372       .  S
O524        H528   0.993       .  S
O526        H527   0.993       .  S
O529        C539   1.278       .  A
O530        C540   1.279       .  A
O530       Cu537   2.010   1_556  S
O531       Cu537   2.004   1_566  S
O533       Cu538   2.006       .  S
O535        C540   1.278       .  A
O536        C539   1.278   1_545  A
O536       Cu538   2.006       .  S
C539        C696   1.476       .  S
C540        C681   1.488       .  S
C541        C575   1.482       .  S
C542        C557   1.483       .  S
O543        C553   1.278   1_565  A
O543       Cu551   2.006       .  S
O544        C554   1.278       .  A
O544       Cu551   2.009       .  S
O545        C555   1.279       .  A
O545       Cu551   2.011   1_545  S
O546        C556   1.278       .  A
O546       Cu551   2.006       .  S
O547        C556   1.278       .  A
O547       Cu552   2.010       .  S
O548        C555   1.278       .  A
O548       Cu552   2.004   1_545  S
O549        C554   1.279       .  A
O549       Cu552   2.010       .  S
O550        C553   1.278       .  A
O550       Cu552   2.007   1_545  S
Cu551      Cu552   2.370       .  S
C553        C693   1.476       .  S
C554        C684   1.488       .  S
C555        C566   1.482       .  S
C556        C584   1.483       .  S
C557        C558   1.403       .  A
C557        C562   1.402       .  A
C558        C559   1.410       .  A
C558        H563   1.081       .  S
C559        C560   1.410       .  A
C560        C561   1.409       .  A
C561        C562   1.408       .  A
C562        H565   1.080       .  S
C566        C567   1.402       .  A
C566        C571   1.403       .  A
C567        C568   1.409       .  A
C567        H572   1.081       .  S
C568        C624   1.501       .  S
C568        C569   1.410       .  A
C569        C570   1.409       .  A
C569        H573   1.079       .  S
C570        C622   1.502       .  S
C570        C571   1.409       .  A
C571        H574   1.081       .  S
C575        C576   1.402       .  A
C575        C580   1.403       .  A
C576        C577   1.409       .  A
C576        H581   1.081       .  S
C577        C597   1.501       .  S
C577        C578   1.410       .  A
C578        C579   1.409       .  A
C578        H582   1.079       .  S
C579        C595   1.502       .  S
C579        C580   1.409       .  A
C580        H583   1.081       .  S
C584        C585   1.403       .  A
C584        C589   1.402       .  A
C585        C586   1.410       .  A
C585        H590   1.081       .  S
C586        C604   1.502       .  S
C586        C587   1.410       .  A
C587        C588   1.409       .  A
C587        H591   1.079       .  S
C588        C606   1.501       .  S
C588        C589   1.408       .  A
C589        H592   1.080       .  S
C593        C641   1.482       .  S
C593        C594   1.403       .  A
C594        C595   1.410       .  A
C594        H599   1.081       .  S
C595        C596   1.410       .  A
C597        C948   1.409       .  A
C597        C598   1.408       .  A
C598        C945   1.402       .  A
C598        H601   1.080       .  S
H600        C948   1.079       .  S
C602        C655   1.483       .  S
C602        C607   1.402       .  A
C603        C954   1.403       .  A
C603        C604   1.409       .  A
C603        H608   1.081       .  S
C604        C957   1.409       .  A
C605        C606   1.410       .  A
C605        H609   1.079       .  S
C606        C607   1.409       .  A
C607        H610   1.081       .  S
C611        C642   1.483       .  S
C611        C612   1.402       .  A
C611        C968   1.403       .  A
C612        C613   1.409       .  A
C612        H617   1.081       .  S
C613        C614   1.410       .  A
C614        C967   1.409       .  A
C614        H618   1.079       .  S
C615        C616   1.409       .  A
C616        H619   1.081       .  S
C620        C656   1.482       .  S
C620        C625   1.402       .  A
C621        C972   1.403       .  A
C621        C622   1.410       .  A
C621        H626   1.081       .  S
C622        C975   1.410       .  A
C623        C624   1.409       .  A
C623        H627   1.079       .  S
C624        C625   1.408       .  A
C625        H628   1.080       .  S
O629        C639   1.277       .  A
O630        C640   1.277       .  A
O630       Cu637   2.002       .  S
O631        C993   1.278       .  A
O631       Cu637   2.006       .  S
O632        C642   1.279       .  A
O632       Cu637   2.011       .  S
O634        C641   1.278       .  A
O636       Cu638   2.013   1_556  S
Cu637      Cu814   2.370       .  S
C639        O988   1.279       .  A
C639       C1009   1.484       .  S
C640        O987   1.279       .  A
C640       C1021   1.481       .  S
C642        O985   1.278       .  A
O643       C1005   1.279       .  A
O643       Cu651   2.010       .  S
O644       C1006   1.279       .  A
O644       Cu651   2.013       .  S
O645       C1007   1.278       .  A
O645       Cu651   2.004       .  S
O646       C1008   1.278       .  A
O646       Cu651   2.008       .  S
O647        C656   1.278       .  A
O647       Cu652   2.006       .  S
O648        C655   1.279       .  A
O648       Cu652   2.011       .  S
O649        C654   1.277       .  A
O649       Cu652   2.005       .  S
O650        C653   1.277       .  A
O650       Cu652   2.002       .  S
Cu651     Cu1004   2.370       .  S
C653        C672   1.481       .  S
C654        C660   1.484       .  S
C657        C658   1.405       .  A
C658        C659   1.400       .  A
C658        H663   1.084       .  S
C659        C660   1.413       .  A
C659        O664   1.372       .  S
C661       C1012   1.405       .  A
C661        C662   1.400       .  A
C661        H665   1.084       .  S
C662       C1009   1.413       .  A
C662        O666   1.372       .  S
O664        H668   0.992       .  S
O666        H667   0.992       .  S
C669        C670   1.404       .  A
C670        C671   1.399       .  A
C670        H675   1.084       .  S
C671        C672   1.412       .  A
C671        O676   1.372       .  S
C673       C1024   1.404       .  A
C673        C674   1.399       .  A
C673        H677   1.084       .  S
C674       C1021   1.412       .  A
C674        O678   1.372       .  S
O676        H680   0.992       .  S
O678        H679   0.992       .  S
C681        C682   1.406   1_545  A
C681        C686   1.413       .  A
C682        C683   1.400       .  A
C682        H687   1.083       .  S
C683        C684   1.413       .  A
C683        O688   1.372       .  S
C684        C685   1.406   1_565  A
C685        C686   1.400       .  A
C685        H689   1.083       .  S
C686        O690   1.372       .  S
O688        H692   0.992       .  S
O690        H691   0.992       .  S
C693        C694   1.404   1_545  A
C693        C698   1.409       .  A
C694        C695   1.399       .  A
C694        H699   1.084       .  S
C695        C696   1.409       .  A
C695        O700   1.372       .  S
C696        C697   1.404   1_565  A
C697        C698   1.399       .  A
C697        H701   1.084       .  S
C698        O702   1.372       .  S
O700        H704   0.993       .  S
O702        H703   0.993       .  S
O705        C715   1.278       .  A
O705       Cu889   2.007   1_565  S
O706        C716   1.279       .  A
O706       Cu713   2.010       .  S
O707        C893   1.278       .  A
O707       Cu713   2.004   1_565  S
O708        C894   1.278   1_554  A
O708       Cu889   2.010       .  S
O709        C894   1.278       .  A
O709       Cu714   2.006   1_556  S
O710        C893   1.279       .  A
O710       Cu890   2.011   1_565  S
O711        C716   1.278       .  A
O711       Cu890   2.009       .  S
O712        C715   1.278   1_545  A
O712       Cu714   2.006       .  S
Cu713       O881   2.007   1_545  S
Cu713       O884   2.010       .  S
Cu713      Cu890   2.370       .  S
Cu714       O886   2.011   1_545  S
Cu714       O887   2.009   1_554  S
Cu714      Cu889   2.370       .  S
C715        C872   1.476       .  S
C716        C857   1.488       .  S
C717        O883   1.278       .  A
C717        O886   1.279   1_556  A
C717        C751   1.482       .  S
C718        O884   1.278       .  A
C718        O885   1.278       .  A
C718        C733   1.483       .  S
O719        C729   1.278   1_565  A
O719       Cu727   2.006       .  S
O720        C730   1.278       .  A
O720       Cu727   2.009       .  S
O721        C731   1.279       .  A
O721       Cu727   2.011   1_545  S
O722        C732   1.278       .  A
O722       Cu727   2.006       .  S
O723        C732   1.278       .  A
O723       Cu728   2.010       .  S
O724        C731   1.278       .  A
O724       Cu728   2.004   1_545  S
O725        C730   1.279       .  A
O725       Cu728   2.010       .  S
O726        C729   1.278       .  A
O726       Cu728   2.007   1_545  S
Cu727      Cu728   2.370       .  S
C729        C869   1.476       .  S
C730        C860   1.488       .  S
C731        C742   1.482       .  S
C732        C760   1.483       .  S
C733        C734   1.403       .  A
C733        C738   1.402       .  A
C734        C735   1.410       .  A
C734        H739   1.081       .  S
C735        C967   1.502       .  S
C735        C736   1.410       .  A
C736        C737   1.409       .  A
C736        H916   1.079       .  S
C737        C965   1.501       .  S
C737        C738   1.408       .  A
C738        H741   1.080       .  S
H740        C912   1.079       .  S
C742        C743   1.402       .  A
C742        C747   1.403       .  A
C743        C744   1.409       .  A
C743        H748   1.081       .  S
C744        C800   1.501       .  S
C744        C745   1.410       .  A
C745        C746   1.409       .  A
C745        H749   1.079       .  S
C746        C798   1.502       .  S
C746        C747   1.409       .  A
C747        H750   1.081       .  S
C751        C752   1.402       .  A
C751        C756   1.403       .  A
C752        C753   1.409       .  A
C752        H757   1.081       .  S
C753        C773   1.501       .  S
C753        C754   1.410       .  A
C754        C755   1.409       .  A
C754        H758   1.079       .  S
C755        C771   1.502       .  S
C755        C756   1.409       .  A
C756        H759   1.081       .  S
C760        C761   1.403       .  A
C760        C765   1.402       .  A
C761        C762   1.410       .  A
C761        H766   1.081       .  S
C762        C780   1.502       .  S
C762        C763   1.410       .  A
C763        C764   1.409       .  A
C763        H767   1.079       .  S
C764        C782   1.501       .  S
C764        C765   1.408       .  A
C765        H768   1.080       .  S
C769        C817   1.482       .  S
C769        C770   1.403       .  A
C770        C771   1.410       .  A
C770        H775   1.081       .  S
C771        C772   1.410       .  A
C773       C1124   1.409       .  A
C773        C774   1.408       .  A
C774       C1121   1.402       .  A
C774        H777   1.080       .  S
H776       C1124   1.079       .  S
C778        C831   1.483       .  S
C778        C783   1.402       .  A
C779       C1130   1.403       .  A
C779        C780   1.409       .  A
C779        H784   1.081       .  S
C780       C1133   1.409       .  A
C781        C782   1.410       .  A
C781        H785   1.079       .  S
C782        C783   1.409       .  A
C783        H786   1.081       .  S
C787        C818   1.483       .  S
C787        C788   1.402       .  A
C787       C1144   1.403       .  A
C788        C789   1.409       .  A
C788        H793   1.081       .  S
C789        C913   1.501       .  S
C789        C790   1.410       .  A
C790       C1143   1.409       .  A
C790        H794   1.079       .  S
C791        C911   1.502       .  S
C791        C792   1.409       .  A
C792        H795   1.081       .  S
C796        C832   1.482       .  S
C796        C801   1.402       .  A
C797       C1148   1.403       .  A
C797        C798   1.410       .  A
C797        H802   1.081       .  S
C798       C1151   1.410       .  A
C799        C800   1.409       .  A
C799        H803   1.079       .  S
C800        C801   1.408       .  A
C801        H804   1.080       .  S
O805        C815   1.277       .  A
O805       Cu989   2.005       .  S
O806        C816   1.277       .  A
O806       Cu813   2.002       .  S
O807       C1169   1.278       .  A
O807       Cu813   2.006   1_556  S
O808        C818   1.279   1_554  A
O808       Cu813   2.011       .  S
O809       Cu990   2.004   1_556  S
O810        C817   1.278       .  A
O810       Cu990   2.008   1_556  S
O811       Cu990   2.010       .  S
O812       Cu814   2.013       .  S
Cu813       O981   2.005   1_554  S
Cu813     Cu1342   2.370       .  S
Cu814       O985   2.004       .  S
Cu814       O986   2.008       .  S
Cu814       O987   2.010       .  S
C815       O1164   1.279       .  A
C815       C1185   1.484       .  S
C816       O1163   1.279       .  A
C816       C1197   1.481       .  S
C818       O1161   1.278       .  A
O819       C1181   1.279       .  A
O819       Cu827   2.010       .  S
O820       C1182   1.279       .  A
O820       Cu827   2.013       .  S
O821       C1183   1.278       .  A
O821       Cu827   2.004       .  S
O822       C1184   1.278       .  A
O822       Cu827   2.008       .  S
O823        C832   1.278       .  A
O823       Cu828   2.006       .  S
O824        C831   1.279       .  A
O824       Cu828   2.011       .  S
O825        C830   1.277       .  A
O825       Cu828   2.005       .  S
O826        C829   1.277       .  A
O826       Cu828   2.002       .  S
Cu827     Cu1180   2.370       .  S
C829        C848   1.481       .  S
C830        C836   1.484       .  S
C833        C834   1.405       .  A
C834        C835   1.400       .  A
C834        H839   1.084       .  S
C835        C836   1.413       .  A
C835        O840   1.372       .  S
C837       C1188   1.405       .  A
C837        C838   1.400       .  A
C837        H841   1.084       .  S
C838       C1185   1.413       .  A
C838        O842   1.372       .  S
O840        H844   0.992       .  S
O842        H843   0.992       .  S
C845        C846   1.404       .  A
C846        C847   1.399       .  A
C846        H851   1.084       .  S
C847        C848   1.412       .  A
C847        O852   1.372       .  S
C849       C1200   1.404       .  A
C849        C850   1.399       .  A
C849        H853   1.084       .  S
C850       C1197   1.412       .  A
C850        O854   1.372       .  S
O852        H856   0.992       .  S
O854        H855   0.992       .  S
C857        C858   1.406   1_545  A
C857        C862   1.413       .  A
C858        C859   1.400       .  A
C858        H863   1.083       .  S
C859        C860   1.413       .  A
C859        O864   1.372       .  S
C860        C861   1.406   1_565  A
C861        C862   1.400       .  A
C861        H865   1.083       .  S
C862        O866   1.372       .  S
O864        H868   0.992       .  S
O866        H867   0.992       .  S
C869        C870   1.404   1_545  A
C869        C874   1.409       .  A
C870        C871   1.399       .  A
C870        H875   1.084       .  S
C871        C872   1.409       .  A
C871        O876   1.372       .  S
C872        C873   1.404   1_565  A
C873        C874   1.399       .  A
C873        H877   1.084       .  S
C874        O878   1.372       .  S
O876        H880   0.993       .  S
O878        H879   0.993       .  S
O881        C891   1.278       .  A
O882        C892   1.279       .  A
O882       Cu889   2.010   1_556  S
O883       Cu889   2.004   1_566  S
O885       Cu890   2.006       .  S
O887        C892   1.278       .  A
O888        C891   1.278   1_545  A
O888       Cu890   2.006       .  S
C891       C1048   1.476       .  S
C892       C1033   1.488       .  S
C893        C927   1.482       .  S
C894        C909   1.483       .  S
O895        C905   1.278   1_565  A
O895       Cu903   2.006       .  S
O896        C906   1.278       .  A
O896       Cu903   2.009       .  S
O897        C907   1.279       .  A
O897       Cu903   2.011   1_545  S
O898        C908   1.278       .  A
O898       Cu903   2.006       .  S
O899        C908   1.278       .  A
O899       Cu904   2.010       .  S
O900        C907   1.278       .  A
O900       Cu904   2.004   1_545  S
O901        C906   1.279       .  A
O901       Cu904   2.010       .  S
O902        C905   1.278       .  A
O902       Cu904   2.007   1_545  S
Cu903      Cu904   2.370       .  S
C905       C1045   1.476       .  S
C906       C1036   1.488       .  S
C907        C918   1.482       .  S
C908        C936   1.483       .  S
C909        C910   1.403       .  A
C909        C914   1.402       .  A
C910        C911   1.410       .  A
C910        H915   1.081       .  S
C911        C912   1.410       .  A
C912        C913   1.409       .  A
C913        C914   1.408       .  A
C914        H917   1.080       .  S
C918        C919   1.402       .  A
C918        C923   1.403       .  A
C919        C920   1.409       .  A
C919        H924   1.081       .  S
C920        C976   1.501       .  S
C920        C921   1.410       .  A
C921        C922   1.409       .  A
C921        H925   1.079       .  S
C922        C974   1.502       .  S
C922        C923   1.409       .  A
C923        H926   1.081       .  S
C927        C928   1.402       .  A
C927        C932   1.403       .  A
C928        C929   1.409       .  A
C928        H933   1.081       .  S
C929        C949   1.501       .  S
C929        C930   1.410       .  A
C930        C931   1.409       .  A
C930        H934   1.079       .  S
C931        C947   1.502       .  S
C931        C932   1.409       .  A
C932        H935   1.081       .  S
C936        C937   1.403       .  A
C936        C941   1.402       .  A
C937        C938   1.410       .  A
C937        H942   1.081       .  S
C938        C956   1.502       .  S
C938        C939   1.410       .  A
C939        C940   1.409       .  A
C939        H943   1.079       .  S
C940        C958   1.501       .  S
C940        C941   1.408       .  A
C941        H944   1.080       .  S
C945        C993   1.482       .  S
C945        C946   1.403       .  A
C946        C947   1.410       .  A
C946        H951   1.081       .  S
C947        C948   1.410       .  A
C949       C1300   1.409       .  A
C949        C950   1.408       .  A
C950       C1297   1.402       .  A
C950        H953   1.080       .  S
H952       C1300   1.079       .  S
C954       C1007   1.483       .  S
C954        C959   1.402       .  A
C955       C1306   1.403       .  A
C955        C956   1.409       .  A
C955        H960   1.081       .  S
C956       C1309   1.409       .  A
C957        C958   1.410       .  A
C957        H961   1.079       .  S
C958        C959   1.409       .  A
C959        H962   1.081       .  S
C963        C994   1.483       .  S
C963        C964   1.402       .  A
C963       C1320   1.403       .  A
C964        C965   1.409       .  A
C964        H969   1.081       .  S
C965        C966   1.410       .  A
C966       C1319   1.409       .  A
C966        H970   1.079       .  S
C967        C968   1.409       .  A
C968        H971   1.081       .  S
C972       C1008   1.482       .  S
C972        C977   1.402       .  A
C973       C1324   1.403       .  A
C973        C974   1.410       .  A
C973        H978   1.081       .  S
C974       C1327   1.410       .  A
C975        C976   1.409       .  A
C975        H979   1.079       .  S
C976        C977   1.408       .  A
C977        H980   1.080       .  S
O981        C991   1.277       .  A
O982        C992   1.277       .  A
O982       Cu989   2.002       .  S
O983       C1345   1.278       .  A
O983       Cu989   2.006       .  S
O984        C994   1.279       .  A
O984       Cu989   2.011       .  S
O986        C993   1.278       .  A
O988       Cu990   2.013   1_556  S
Cu989     Cu1166   2.370       .  S
C991       O1340   1.279       .  A
C991       C1361   1.484       .  S
C992       O1339   1.279       .  A
C992       C1373   1.481       .  S
C994       O1337   1.278       .  A
O995       C1357   1.279       .  A
O995      Cu1003   2.010       .  S
O996       C1358   1.279       .  A
O996      Cu1003   2.013       .  S
O997       C1359   1.278       .  A
O997      Cu1003   2.004       .  S
O998       C1360   1.278       .  A
O998      Cu1003   2.008       .  S
O999       C1008   1.278       .  A
O999      Cu1004   2.006       .  S
O1000      C1007   1.279       .  A
O1000     Cu1004   2.011       .  S
O1001      C1006   1.277       .  A
O1001     Cu1004   2.005       .  S
O1002      C1005   1.277       .  A
O1002     Cu1004   2.002       .  S
Cu1003    Cu1356   2.370       .  S
C1005      C1024   1.481       .  S
C1006      C1012   1.484       .  S
C1009      C1010   1.405       .  A
C1010      C1011   1.400       .  A
C1010      H1015   1.084       .  S
C1011      C1012   1.413       .  A
C1011      O1016   1.372       .  S
C1013      C1364   1.405       .  A
C1013      C1014   1.400       .  A
C1013      H1017   1.084       .  S
C1014      C1361   1.413       .  A
C1014      O1018   1.372       .  S
O1016      H1020   0.992       .  S
O1018      H1019   0.992       .  S
C1021      C1022   1.404       .  A
C1022      C1023   1.399       .  A
C1022      H1027   1.084       .  S
C1023      C1024   1.412       .  A
C1023      O1028   1.372       .  S
C1025      C1376   1.404       .  A
C1025      C1026   1.399       .  A
C1025      H1029   1.084       .  S
C1026      C1373   1.412       .  A
C1026      O1030   1.372       .  S
O1028      H1032   0.992       .  S
O1030      H1031   0.992       .  S
C1033      C1034   1.406   1_545  A
C1033      C1038   1.413       .  A
C1034      C1035   1.400       .  A
C1034      H1039   1.083       .  S
C1035      C1036   1.413       .  A
C1035      O1040   1.372       .  S
C1036      C1037   1.406   1_565  A
C1037      C1038   1.400       .  A
C1037      H1041   1.083       .  S
C1038      O1042   1.372       .  S
O1040      H1044   0.992       .  S
O1042      H1043   0.992       .  S
C1045      C1046   1.404   1_545  A
C1045      C1050   1.409       .  A
C1046      C1047   1.399       .  A
C1046      H1051   1.084       .  S
C1047      C1048   1.409       .  A
C1047      O1052   1.372       .  S
C1048      C1049   1.404   1_565  A
C1049      C1050   1.399       .  A
C1049      H1053   1.084       .  S
C1050      O1054   1.372       .  S
O1052      H1056   0.993       .  S
O1054      H1055   0.993       .  S
O1057      C1067   1.278       .  A
O1057     Cu1241   2.007   1_565  S
O1058      C1068   1.279       .  A
O1058     Cu1065   2.010       .  S
O1059      C1245   1.278       .  A
O1059     Cu1065   2.004   1_565  S
O1060      C1246   1.278   1_554  A
O1060     Cu1241   2.010       .  S
O1061      C1246   1.278       .  A
O1061     Cu1066   2.006   1_556  S
O1062      C1245   1.279       .  A
O1062     Cu1242   2.011   1_565  S
O1063      C1068   1.278       .  A
O1063     Cu1242   2.009       .  S
O1064      C1067   1.278   1_545  A
O1064     Cu1066   2.006       .  S
Cu1065     O1233   2.007   1_545  S
Cu1065     O1236   2.010       .  S
Cu1065    Cu1242   2.370       .  S
Cu1066     O1238   2.011   1_545  S
Cu1066     O1239   2.009   1_554  S
Cu1066    Cu1241   2.370       .  S
C1067      C1224   1.476       .  S
C1068      C1209   1.488       .  S
C1069      O1235   1.278       .  A
C1069      O1238   1.279   1_556  A
C1069      C1103   1.482       .  S
C1070      O1236   1.278       .  A
C1070      O1237   1.278       .  A
C1070      C1085   1.483       .  S
O1071      C1081   1.278   1_565  A
O1071     Cu1079   2.006       .  S
O1072      C1082   1.278       .  A
O1072     Cu1079   2.009       .  S
O1073      C1083   1.279       .  A
O1073     Cu1079   2.011   1_545  S
O1074      C1084   1.278       .  A
O1074     Cu1079   2.006       .  S
O1075      C1084   1.278       .  A
O1075     Cu1080   2.010       .  S
O1076      C1083   1.278       .  A
O1076     Cu1080   2.004   1_545  S
O1077      C1082   1.279       .  A
O1077     Cu1080   2.010       .  S
O1078      C1081   1.278       .  A
O1078     Cu1080   2.007   1_545  S
Cu1079    Cu1080   2.370       .  S
C1081      C1221   1.476       .  S
C1082      C1212   1.488       .  S
C1083      C1094   1.482       .  S
C1084      C1112   1.483       .  S
C1085      C1086   1.403       .  A
C1085      C1090   1.402       .  A
C1086      C1087   1.410       .  A
C1086      H1091   1.081       .  S
C1087      C1319   1.502       .  S
C1087      C1088   1.410       .  A
C1088      C1089   1.409       .  A
C1088      H1268   1.079       .  S
C1089      C1317   1.501       .  S
C1089      C1090   1.408       .  A
C1090      H1093   1.080       .  S
H1092      C1264   1.079       .  S
C1094      C1095   1.402       .  A
C1094      C1099   1.403       .  A
C1095      C1096   1.409       .  A
C1095      H1100   1.081       .  S
C1096      C1152   1.501       .  S
C1096      C1097   1.410       .  A
C1097      C1098   1.409       .  A
C1097      H1101   1.079       .  S
C1098      C1150   1.502       .  S
C1098      C1099   1.409       .  A
C1099      H1102   1.081       .  S
C1103      C1104   1.402       .  A
C1103      C1108   1.403       .  A
C1104      C1105   1.409       .  A
C1104      H1109   1.081       .  S
C1105      C1125   1.501       .  S
C1105      C1106   1.410       .  A
C1106      C1107   1.409       .  A
C1106      H1110   1.079       .  S
C1107      C1123   1.502       .  S
C1107      C1108   1.409       .  A
C1108      H1111   1.081       .  S
C1112      C1113   1.403       .  A
C1112      C1117   1.402       .  A
C1113      C1114   1.410       .  A
C1113      H1118   1.081       .  S
C1114      C1132   1.502       .  S
C1114      C1115   1.410       .  A
C1115      C1116   1.409       .  A
C1115      H1119   1.079       .  S
C1116      C1134   1.501       .  S
C1116      C1117   1.408       .  A
C1117      H1120   1.080       .  S
C1121      C1169   1.482       .  S
C1121      C1122   1.403       .  A
C1122      C1123   1.410       .  A
C1122      H1127   1.081       .  S
C1123      C1124   1.410       .  A
C1125      C1126   1.408       .  A
C1126      H1129   1.080       .  S
C1130      C1183   1.483       .  S
C1130      C1135   1.402       .  A
C1131      C1132   1.409       .  A
C1131      H1136   1.081       .  S
C1133      C1134   1.410       .  A
C1133      H1137   1.079       .  S
C1134      C1135   1.409       .  A
C1135      H1138   1.081       .  S
C1139      C1170   1.483       .  S
C1139      C1140   1.402       .  A
C1140      C1141   1.409       .  A
C1140      H1145   1.081       .  S
C1141      C1265   1.501       .  S
C1141      C1142   1.410       .  A
C1142      H1146   1.079       .  S
C1143      C1263   1.502       .  S
C1143      C1144   1.409       .  A
C1144      H1147   1.081       .  S
C1148      C1184   1.482       .  S
C1148      C1153   1.402       .  A
C1149      C1150   1.410       .  A
C1149      H1154   1.081       .  S
C1151      C1152   1.409       .  A
C1151      H1155   1.079       .  S
C1152      C1153   1.408       .  A
C1153      H1156   1.080       .  S
O1157      C1167   1.277       .  A
O1157     Cu1341   2.005       .  S
O1158      C1168   1.277       .  A
O1158     Cu1165   2.002       .  S
O1159     Cu1165   2.006   1_556  S
O1160      C1170   1.279   1_554  A
O1160     Cu1165   2.011       .  S
O1161     Cu1342   2.004   1_556  S
O1162      C1169   1.278       .  A
O1162     Cu1342   2.008   1_556  S
O1163     Cu1342   2.010       .  S
O1164     Cu1166   2.013       .  S
Cu1165     O1333   2.005   1_554  S
Cu1166     O1337   2.004       .  S
Cu1166     O1338   2.008       .  S
Cu1166     O1339   2.010       .  S
O1171     Cu1179   2.010       .  S
O1172     Cu1179   2.013       .  S
O1173     Cu1179   2.004       .  S
O1174     Cu1179   2.008       .  S
O1175      C1184   1.278       .  A
O1175     Cu1180   2.006       .  S
O1176      C1183   1.279       .  A
O1176     Cu1180   2.011       .  S
O1177      C1182   1.277       .  A
O1177     Cu1180   2.005       .  S
O1178      C1181   1.277       .  A
O1178     Cu1180   2.002       .  S
C1181      C1200   1.481       .  S
C1182      C1188   1.484       .  S
C1185      C1186   1.405       .  A
C1186      C1187   1.400       .  A
C1186      H1191   1.084       .  S
C1187      C1188   1.413       .  A
C1187      O1192   1.372       .  S
C1189      C1190   1.400       .  A
C1189      H1193   1.084       .  S
C1190      O1194   1.372       .  S
O1192      H1196   0.992       .  S
O1194      H1195   0.992       .  S
C1197      C1198   1.404       .  A
C1198      C1199   1.399       .  A
C1198      H1203   1.084       .  S
C1199      C1200   1.412       .  A
C1199      O1204   1.372       .  S
C1201      C1202   1.399       .  A
C1201      H1205   1.084       .  S
C1202      O1206   1.372       .  S
O1204      H1208   0.992       .  S
O1206      H1207   0.992       .  S
C1209      C1210   1.406   1_545  A
C1209      C1214   1.413       .  A
C1210      C1211   1.400       .  A
C1210      H1215   1.083       .  S
C1211      C1212   1.413       .  A
C1211      O1216   1.372       .  S
C1212      C1213   1.406   1_565  A
C1213      C1214   1.400       .  A
C1213      H1217   1.083       .  S
C1214      O1218   1.372       .  S
O1216      H1220   0.992       .  S
O1218      H1219   0.992       .  S
C1221      C1222   1.404   1_545  A
C1221      C1226   1.409       .  A
C1222      C1223   1.399       .  A
C1222      H1227   1.084       .  S
C1223      C1224   1.409       .  A
C1223      O1228   1.372       .  S
C1224      C1225   1.404   1_565  A
C1225      C1226   1.399       .  A
C1225      H1229   1.084       .  S
C1226      O1230   1.372       .  S
O1228      H1232   0.993       .  S
O1230      H1231   0.993       .  S
O1233      C1243   1.278       .  A
O1234      C1244   1.279       .  A
O1234     Cu1241   2.010   1_556  S
O1235     Cu1241   2.004   1_566  S
O1237     Cu1242   2.006       .  S
O1239      C1244   1.278       .  A
O1240      C1243   1.278   1_545  A
O1240     Cu1242   2.006       .  S
C1243      C1400   1.476       .  S
C1244      C1385   1.488       .  S
C1245      C1279   1.482       .  S
C1246      C1261   1.483       .  S
O1247      C1257   1.278   1_565  A
O1247     Cu1255   2.006       .  S
O1248      C1258   1.278       .  A
O1248     Cu1255   2.009       .  S
O1249      C1259   1.279       .  A
O1249     Cu1255   2.011   1_545  S
O1250      C1260   1.278       .  A
O1250     Cu1255   2.006       .  S
O1251      C1260   1.278       .  A
O1251     Cu1256   2.010       .  S
O1252      C1259   1.278       .  A
O1252     Cu1256   2.004   1_545  S
O1253      C1258   1.279       .  A
O1253     Cu1256   2.010       .  S
O1254      C1257   1.278       .  A
O1254     Cu1256   2.007   1_545  S
Cu1255    Cu1256   2.370       .  S
C1257      C1397   1.476       .  S
C1258      C1388   1.488       .  S
C1259      C1270   1.482       .  S
C1260      C1288   1.483       .  S
C1261      C1262   1.403       .  A
C1261      C1266   1.402       .  A
C1262      C1263   1.410       .  A
C1262      H1267   1.081       .  S
C1263      C1264   1.410       .  A
C1264      C1265   1.409       .  A
C1265      C1266   1.408       .  A
C1266      H1269   1.080       .  S
C1270      C1271   1.402       .  A
C1270      C1275   1.403       .  A
C1271      C1272   1.409       .  A
C1271      H1276   1.081       .  S
C1272      C1328   1.501       .  S
C1272      C1273   1.410       .  A
C1273      C1274   1.409       .  A
C1273      H1277   1.079       .  S
C1274      C1326   1.502       .  S
C1274      C1275   1.409       .  A
C1275      H1278   1.081       .  S
C1279      C1280   1.402       .  A
C1279      C1284   1.403       .  A
C1280      C1281   1.409       .  A
C1280      H1285   1.081       .  S
C1281      C1301   1.501       .  S
C1281      C1282   1.410       .  A
C1282      C1283   1.409       .  A
C1282      H1286   1.079       .  S
C1283      C1299   1.502       .  S
C1283      C1284   1.409       .  A
C1284      H1287   1.081       .  S
C1288      C1289   1.403       .  A
C1288      C1293   1.402       .  A
C1289      C1290   1.410       .  A
C1289      H1294   1.081       .  S
C1290      C1308   1.502       .  S
C1290      C1291   1.410       .  A
C1291      C1292   1.409       .  A
C1291      H1295   1.079       .  S
C1292      C1310   1.501       .  S
C1292      C1293   1.408       .  A
C1293      H1296   1.080       .  S
C1297      C1345   1.482       .  S
C1297      C1298   1.403       .  A
C1298      C1299   1.410       .  A
C1298      H1303   1.081       .  S
C1299      C1300   1.410       .  A
C1301      C1302   1.408       .  A
C1302      H1305   1.080       .  S
C1306      C1359   1.483       .  S
C1306      C1311   1.402       .  A
C1307      C1308   1.409       .  A
C1307      H1312   1.081       .  S
C1309      C1310   1.410       .  A
C1309      H1313   1.079       .  S
C1310      C1311   1.409       .  A
C1311      H1314   1.081       .  S
C1315      C1346   1.483       .  S
C1315      C1316   1.402       .  A
C1316      C1317   1.409       .  A
C1316      H1321   1.081       .  S
C1317      C1318   1.410       .  A
C1318      H1322   1.079       .  S
C1319      C1320   1.409       .  A
C1320      H1323   1.081       .  S
C1324      C1360   1.482       .  S
C1324      C1329   1.402       .  A
C1325      C1326   1.410       .  A
C1325      H1330   1.081       .  S
C1327      C1328   1.409       .  A
C1327      H1331   1.079       .  S
C1328      C1329   1.408       .  A
C1329      H1332   1.080       .  S
O1333      C1343   1.277       .  A
O1334      C1344   1.277       .  A
O1334     Cu1341   2.002       .  S
O1335     Cu1341   2.006       .  S
O1336      C1346   1.279       .  A
O1336     Cu1341   2.011       .  S
O1338      C1345   1.278       .  A
O1340     Cu1342   2.013   1_556  S
O1347     Cu1355   2.010       .  S
O1348     Cu1355   2.013       .  S
O1349     Cu1355   2.004       .  S
O1350     Cu1355   2.008       .  S
O1351      C1360   1.278       .  A
O1351     Cu1356   2.006       .  S
O1352      C1359   1.279       .  A
O1352     Cu1356   2.011       .  S
O1353      C1358   1.277       .  A
O1353     Cu1356   2.005       .  S
O1354      C1357   1.277       .  A
O1354     Cu1356   2.002       .  S
C1357      C1376   1.481       .  S
C1358      C1364   1.484       .  S
C1361      C1362   1.405       .  A
C1362      C1363   1.400       .  A
C1362      H1367   1.084       .  S
C1363      C1364   1.413       .  A
C1363      O1368   1.372       .  S
C1365      C1366   1.400       .  A
C1365      H1369   1.084       .  S
C1366      O1370   1.372       .  S
O1368      H1372   0.992       .  S
O1370      H1371   0.992       .  S
C1373      C1374   1.404       .  A
C1374      C1375   1.399       .  A
C1374      H1379   1.084       .  S
C1375      C1376   1.412       .  A
C1375      O1380   1.372       .  S
C1377      C1378   1.399       .  A
C1377      H1381   1.084       .  S
C1378      O1382   1.372       .  S
O1380      H1384   0.992       .  S
O1382      H1383   0.992       .  S
C1385      C1386   1.406   1_545  A
C1385      C1390   1.413       .  A
C1386      C1387   1.400       .  A
C1386      H1391   1.083       .  S
C1387      C1388   1.413       .  A
C1387      O1392   1.372       .  S
C1388      C1389   1.406   1_565  A
C1389      C1390   1.400       .  A
C1389      H1393   1.083       .  S
C1390      O1394   1.372       .  S
O1392      H1396   0.992       .  S
O1394      H1395   0.992       .  S
C1397      C1398   1.404   1_545  A
C1397      C1402   1.409       .  A
C1398      C1399   1.399       .  A
C1398      H1403   1.084       .  S
C1399      C1400   1.409       .  A
C1399      O1404   1.372       .  S
C1400      C1401   1.404   1_565  A
C1401      C1402   1.399       .  A
C1401      H1405   1.084       .  S
C1402      O1406   1.372       .  S
O1404      H1408   0.993       .  S
O1406      H1407   0.993       .  S
