geometry optimzed in LAMMPS
_audit_creation_date              2020-12-01 
_audit_creation_method            'lammps2cif' 
_symmetry_space_group_name_H-M    'P1' 
_symmetry_Int_Tables_number       1 
_symmetry_cell_setting            triclinic 
loop_ 
_symmetry_equiv_pos_as_xyz 
  x,y,z 
_cell_length_a                    55.1458849 
_cell_length_b                    55.39325167237604 
_cell_length_c                    43.766335628768964 
_cell_angle_alpha                 90.05143164647382 
_cell_angle_beta                  89.76011830947465 
_cell_angle_gamma                 123.5972213272045 
loop_ 
_atom_site_label 
_atom_site_type_symbol 
_atom_site_fract_x 
_atom_site_fract_y 
_atom_site_fract_z 
_atom_site_charge 
C1          C  0.86308463  0.32766599  0.49977428     0.03300
C2          C  0.84893138  0.32225159  0.02826722    -0.12900
C3          C  0.81966591  0.31329992  0.02960476     0.00800
C4          C  0.80438258  0.30898946  0.00251266    -0.11400
C5          C  0.81823920  0.31433063  0.47400657     0.03300
C6          C  0.84751731  0.32340814  0.47279402    -0.10800
H7          H  0.86098535  0.32624158  0.04922987     0.08900
H8          H  0.78172746  0.30193765  0.00368614     0.06400
H9          H  0.85844317  0.32791965  0.45087253     0.06300
C10         C  0.46446243  0.03890682  0.50367676     0.03300
C11         C  0.47344117  0.05368061  0.03174898    -0.12900
C12         C  0.49052749  0.08403265  0.03246978     0.00800
C13         C  0.49822480  0.09974043  0.50518593    -0.11400
C14         C  0.48931798  0.08545806  0.47702557     0.03300
C15         C  0.47260324  0.05500990  0.47633293    -0.10800
H16         H  0.46793451  0.04163447  0.05297079     0.08900
H17         H  0.51211336  0.12321344  0.50585325     0.06400
H18         H  0.46668195  0.04394298  0.45451920     0.06300
C19         C  0.59096910  0.44794962  0.00154878     0.03300
C20         C  0.59838339  0.44146476  0.47359502    -0.12900
C21         C  0.60680164  0.42175479  0.47205681     0.00800
C22         C  0.60854744  0.40923959  0.99895297    -0.11400
C23         C  0.60177483  0.41592399  0.02728947     0.03300
C24         C  0.59285726  0.43525381  0.02850525    -0.10800
H25         H  0.59699895  0.45129373  0.45285138     0.08900
H26         H  0.61478098  0.39381030  0.99799730     0.06400
H27         H  0.58697518  0.44005207  0.05025555     0.06300
Fe28       Fe  0.64286255  0.24258674  0.25348118     1.65800
Fe29       Fe  0.59681365  0.26568802  0.25349545     1.73200
Fe30       Fe  0.67054459  0.31506132  0.24982217     1.54400
O31         O  0.69165863  0.31004246  0.28571616    -0.81500
O32         O  0.60538931  0.29593062  0.22024996    -0.79800
O33         O  0.67717570  0.26377932  0.28348024    -0.84000
O34         O  0.67079354  0.25818111  0.21646075    -0.78900
O35         O  0.65333521  0.32987948  0.28094369    -0.80600
O36         O  0.58251457  0.23526513  0.21905779    -0.83400
C37         C  0.69004828  0.28356003  0.20734101     0.97400
C38         C  0.69315061  0.28906618  0.29454318     1.04800
O39         O  0.63675266  0.27445590  0.25227388    -1.12400
O40         O  0.58254474  0.23405198  0.28688812    -0.74800
O41         O  0.61584915  0.22340561  0.29075804    -0.78300
O42         O  0.69273811  0.30603731  0.21864583    -0.79000
C43         C  0.59261456  0.22082385  0.29968814     0.96300
O44         O  0.60943208  0.21694872  0.22353970    -0.76900
O45         O  0.60660664  0.29526405  0.28795005    -0.82100
C46         C  0.62747994  0.31629589  0.20616089     0.98900
C47         C  0.62915271  0.31990619  0.29443641     1.04800
O48         O  0.65327952  0.32462373  0.21345264    -0.77800
C49         C  0.58876879  0.21723971  0.21132113     1.03100
C50         C  0.07937077  0.41922530  0.50007159     0.03300
C51         C  0.09474581  0.42688791  0.47222118    -0.12900
C52         C  0.12531229  0.44418582  0.47187960     0.00800
C53         C  0.14029857  0.45348036  0.49961787    -0.11400
C54         C  0.12532658  0.44652502  0.02773920     0.03300
C55         C  0.09483388  0.42878841  0.02794740    -0.10800
H56         H  0.08293500  0.42032265  0.45084134     0.08900
H57         H  0.16385184  0.46752930  0.49948284     0.06400
H58         H  0.08315982  0.42354364  0.04946615     0.06300
C59         C  0.37255973  0.82330074  0.99769329     0.03300
C60         C  0.36612850  0.80841456  0.02563540    -0.12900
C61         C  0.35620800  0.77900490  0.02607839     0.00800
C62         C  0.35230750  0.76451063  0.99850892    -0.11400
C63         C  0.35881824  0.77906853  0.47049781     0.03300
C64         C  0.36888809  0.80853842  0.47020080    -0.10800
H65         H  0.36932785  0.81979433  0.04693293     0.08900
H66         H  0.34461257  0.74176820  0.99894420     0.06400
H67         H  0.37459863  0.82020859  0.44872385     0.06300
C68         C  0.49438705  0.55761349  0.99662800     0.03300
C69         C  0.48382356  0.56006972  0.02505744    -0.12900
C70         C  0.46408730  0.56846389  0.02652507     0.00800
C71         C  0.45552949  0.57521851  0.99958583    -0.11400
C72         C  0.46524436  0.57241256  0.47117996     0.03300
C73         C  0.48497398  0.56390767  0.46986773    -0.10800
H74         H  0.48959265  0.55387526  0.04588625     0.08900
H75         H  0.44030417  0.58176564  0.00086100     0.06400
H76         H  0.49198729  0.56090803  0.44786056     0.06300
Fe77       Fe  0.35649279  0.62922058  0.24664476     1.65800
Fe78       Fe  0.30601167  0.55580356  0.24897006     1.73200
Fe79       Fe  0.28377079  0.60260381  0.24943854     1.54400
O80         O  0.30351164  0.63443751  0.28206757    -0.81500
O81         O  0.27483509  0.54173515  0.21517396    -0.79800
O82         O  0.35072483  0.65216613  0.27967046    -0.84000
O83         O  0.34891121  0.64955294  0.21207252    -0.78900
O84         O  0.26160623  0.57351017  0.28437217    -0.80600
O85         O  0.33584003  0.56347232  0.21527188    -0.83400
C86         C  0.32686693  0.64910931  0.20288007     0.97400
C87         C  0.32941541  0.65195930  0.29096914     1.04800
O88         O  0.31543298  0.59586065  0.24832800    -1.12400
O89         O  0.33610950  0.56529939  0.28278125    -0.74800
O90         O  0.36900954  0.61289256  0.28097838    -0.78300
O91         O  0.30180050  0.63270529  0.21468410    -0.79000
C92         C  0.35929186  0.58802160  0.29229866     0.96300
O93         O  0.36819344  0.61104198  0.21352530    -0.76900
O94         O  0.27485989  0.54225685  0.28286925    -0.82100
C95         C  0.25854608  0.54977249  0.20592559     0.98900
C96         C  0.25978729  0.55101312  0.29407797     1.04800
O97         O  0.25979569  0.57157009  0.21701485    -0.77800
C98         C  0.35872196  0.58560207  0.20433983     1.03100
C99         C  0.45404070  0.59417568  0.39241937    -0.27400
C100        C  0.42356617  0.57994419  0.39202238     0.02200
C101        C  0.40726270  0.56321709  0.41750536     0.30200
C102        C  0.42121214  0.56058161  0.44250278    -0.19200
C103        C  0.45164238  0.57494326  0.44320351    -0.28600
C104        C  0.46812152  0.59176469  0.41779812     0.44300
C105        C  0.40855513  0.58235446  0.36524516     0.05500
O106        O  0.37758789  0.54961450  0.41843136    -0.57200
H107        H  0.40807449  0.54731208  0.46165616     0.18400
O108        O  0.49794280  0.60693589  0.41815149    -0.63900
H109        H  0.46694182  0.60709189  0.37300092     0.16800
C110        C  0.41630155  0.60946783  0.35376661     0.29100
C111        C  0.40011035  0.61094635  0.33011237    -0.24800
C112        C  0.37596246  0.58561891  0.31744097    -0.24100
C113        C  0.36845632  0.55846306  0.32893367     0.40500
C114        C  0.38493096  0.55707042  0.35221184    -0.26500
O115        O  0.43864970  0.63465005  0.36660929    -0.58400
H116        H  0.40634249  0.63212216  0.32200802     0.16200
O117        O  0.34521490  0.53303361  0.31755173    -0.59800
H118        H  0.37888645  0.53600085  0.36050699     0.14600
H119        H  0.50303065  0.59609081  0.40445372     0.46500
H120        H  0.45497810  0.64250691  0.35177984     0.41900
H121        H  0.32866457  0.52792761  0.33128371     0.45300
H122        H  0.37430611  0.56438851  0.42628920     0.36800
C123        C  0.38722385  0.55206826  0.15106938    -0.27400
C124        C  0.40817065  0.57628951  0.13407848     0.02200
C125        C  0.41283026  0.60347271  0.14027867     0.30200
C126        C  0.39653801  0.60609123  0.16308027    -0.19200
C127        C  0.37535124  0.58184871  0.18009763    -0.28600
C128        C  0.37087668  0.55461242  0.17387847     0.44300
C129        C  0.42317135  0.57247195  0.10821987     0.05500
O130        O  0.43201260  0.62724052  0.12292128    -0.57200
H131        H  0.40026478  0.62719862  0.16706976     0.18400
O132        O  0.35110683  0.53042817  0.19034097    -0.63900
H133        H  0.38338255  0.53099638  0.14644914     0.16800
C134        C  0.45380264  0.58823298  0.10618835     0.29100
C135        C  0.46714763  0.58598437  0.07997057    -0.24800
C136        C  0.45021274  0.56806863  0.05568155    -0.24100
C137        C  0.41963234  0.55110749  0.05854521     0.40500
C138        C  0.40637139  0.55342860  0.08459960    -0.26500
O139        O  0.47083629  0.60624676  0.12941217    -0.58400
H140        H  0.49068001  0.59893518  0.07815945     0.16200
O141        O  0.40247251  0.53273721  0.03557303    -0.59800
H142        H  0.38281471  0.54095073  0.08596327     0.14600
H143        H  0.33326611  0.52026347  0.17765644     0.46500
H144        H  0.47220542  0.59353632  0.14425146     0.41900
H145        H  0.40183308  0.51469492  0.03897558     0.45300
H146        H  0.44871728  0.63988345  0.13653410     0.36800
C147        C  0.33794085  0.74747989  0.39042896    -0.27400
C148        C  0.34846009  0.72948175  0.39024598     0.02200
C149        C  0.36326024  0.72876522  0.41595826     0.30200
C150        C  0.36728050  0.74576601  0.44139107    -0.19200
C151        C  0.35623199  0.76333126  0.44201596    -0.28600
C152        C  0.34159342  0.76423670  0.41614699     0.44300
C153        C  0.34351073  0.71095101  0.36356036     0.05500
O154        O  0.37335545  0.71102259  0.41669836    -0.57200
H155        H  0.37876596  0.74489555  0.46094398     0.18400
O156        O  0.33009039  0.78074510  0.41604167    -0.63900
H157        H  0.32661199  0.74829492  0.37070012     0.16800
C158        C  0.31517203  0.68998802  0.35365527     0.29100
C159        C  0.31095649  0.67112146  0.32993002    -0.24800
C160        C  0.33477104  0.67284973  0.31554990    -0.24100
C161        C  0.36323905  0.69445936  0.32517079     0.40500
C162        C  0.36733850  0.71316540  0.34899025    -0.26500
O163        O  0.29142174  0.68669978  0.36818817    -0.58400
H164        H  0.28885848  0.65477591  0.32318060     0.16200
O165        O  0.38727219  0.69722484  0.31200840    -0.59800
H166        H  0.38928361  0.72934562  0.35636989     0.14600
H167        H  0.31046010  0.76827097  0.42532349     0.46500
H168        H  0.28471983  0.69622308  0.35466136     0.41900
H169        H  0.39317666  0.71162454  0.29537990     0.45300
H170        H  0.35657281  0.69193610  0.42370647     0.36800
C171        C  0.31455952  0.69521705  0.14911258    -0.27400
C172        C  0.33919805  0.70744467  0.13016168     0.02200
C173        C  0.35969575  0.70021280  0.13507842     0.30200
C174        C  0.35548620  0.68131019  0.15880575    -0.19200
C175        C  0.33064504  0.66881829  0.17765338    -0.28600
C176        C  0.31004428  0.67595276  0.17246890     0.44300
C177        C  0.34279607  0.72700713  0.10485047     0.05500
O178        O  0.38368819  0.71110924  0.11653214    -0.57200
H179        H  0.37155690  0.67610257  0.16213793     0.18400
O180        O  0.28544242  0.66443876  0.19015900    -0.63900
H181        H  0.29871779  0.70074382  0.14589393     0.16800
C182        C  0.32005602  0.71857634  0.08394173     0.29100
C183        C  0.32421111  0.73659411  0.05940102    -0.24800
C184        C  0.35096713  0.76303381  0.05497471    -0.24100
C185        C  0.37350734  0.77188030  0.07619167     0.40500
C186        C  0.36924502  0.75400904  0.10105571    -0.26500
O187        O  0.29400693  0.69228649  0.08661935    -0.58400
H188        H  0.30677741  0.72943046  0.04308542     0.16200
O189        O  0.40013549  0.79731571  0.07212599    -0.59800
H190        H  0.38684016  0.76101371  0.11709985     0.14600
H191        H  0.29106474  0.67810937  0.20745164     0.46500
H192        H  0.29691951  0.67831828  0.07583510     0.41900
H193        H  0.41132818  0.79224334  0.05889639     0.45300
H194        H  0.37713955  0.69747905  0.09907752     0.36800
C195        C  0.18058446  0.50274731  0.08252604    -0.27400
C196        C  0.17685057  0.48597535  0.10828508     0.02200
C197        C  0.15471092  0.45613808  0.10827337     0.30200
C198        C  0.13739432  0.44341702  0.08219031    -0.19200
C199        C  0.14194343  0.46018482  0.05608721    -0.28600
C200        C  0.16314882  0.49025581  0.05686288     0.44300
C201        C  0.19615841  0.50058505  0.13485306     0.05500
O202        O  0.14917063  0.43962626  0.13396296    -0.57200
H203        H  0.12076779  0.42038470  0.08217451     0.18400
O204        O  0.16701106  0.50774150  0.03259800    -0.63900
H205        H  0.19726483  0.52577423  0.08225029     0.16800
C206        C  0.21313251  0.49119529  0.14722429     0.29100
C207        C  0.23306775  0.50715061  0.17053133    -0.24800
C208        C  0.23702651  0.53302969  0.18140056    -0.24100
C209        C  0.22015934  0.54250801  0.16854304     0.40500
C210        C  0.19977624  0.52613107  0.14592093    -0.26500
O211        O  0.21117214  0.46704337  0.13604293    -0.58400
H212        H  0.24579190  0.49941713  0.17972983     0.18400
O213        O  0.22347121  0.56789287  0.17757062    -0.59800
H214        H  0.18710921  0.53383031  0.13642635     0.14600
H215        H  0.15203990  0.51222750  0.03528966     0.46500
H216        H  0.22501582  0.47406353  0.11860577     0.41900
H217        H  0.23825613  0.58290227  0.16345075     0.45300
H218        H  0.15416641  0.42550813  0.12840598     0.36800
C219        C  0.20892364  0.48972423  0.34846120    -0.27400
C220        C  0.19870296  0.50297409  0.36699811     0.02200
C221        C  0.20894727  0.53223564  0.36173001     0.30200
C222        C  0.22883761  0.54758192  0.33798672    -0.19200
C223        C  0.23903312  0.53428933  0.31930625    -0.28600
C224        C  0.22880980  0.50501325  0.32482715     0.44300
C225        C  0.17848101  0.48624609  0.39257027     0.05500
O226        O  0.20098438  0.54644760  0.38076733    -0.57200
H227        H  0.23664650  0.57014280  0.33454637     0.18400
O228        O  0.23793275  0.49096617  0.30722788    -0.63900
H229        H  0.20130892  0.46725501  0.35225252     0.16800
C230        C  0.15191851  0.48403134  0.39644136     0.29100
C231        C  0.13406423  0.46914569  0.42164888    -0.24800
C232        C  0.14199920  0.45577991  0.44296558    -0.24100
C233        C  0.16766849  0.45649132  0.43798075     0.40500
C234        C  0.18576315  0.47184970  0.41318410    -0.26500
O235        O  0.14326760  0.49645873  0.37587469    -0.58400
H236        H  0.11443895  0.46886624  0.42505150     0.16200
O237        O  0.17561256  0.44275330  0.45760218    -0.59800
H238        H  0.20586795  0.47292345  0.41032775     0.14600
H239        H  0.22340818  0.48167435  0.29060717     0.46500
H240        H  0.13331322  0.48191242  0.35939810     0.41900
H241        H  0.16450180  0.42225734  0.45082656     0.45300
H242        H  0.18944200  0.55131491  0.36798048     0.36800
C243        C  0.55104870  0.54086404  0.01535338    -0.27400
C244        C  0.54275606  0.51765138  0.49605514     0.02200
C245        C  0.52016040  0.50913504  0.47506284     0.30200
C246        C  0.50529683  0.52299602  0.47485352    -0.19200
C247        C  0.51264453  0.54548612  0.99507406    -0.28600
C248        C  0.53633180  0.55493627  0.01504532     0.44300
C249        C  0.55612191  0.50082298  0.49898676     0.05500
O250        O  0.51187331  0.48665861  0.45526989    -0.57200
H251        H  0.48717741  0.51525717  0.45935407     0.18400
O252        O  0.54496908  0.57757031  0.03471706    -0.63900
H253        H  0.56855430  0.54770560  0.03147909     0.16800
C254        C  0.58490893  0.51223313  0.48943503     0.29100
C255        C  0.59627781  0.49501175  0.49083546    -0.24800
C256        C  0.57942536  0.46655337  0.00222646    -0.24100
C257        C  0.55077363  0.45534617  0.01225975     0.40500
C258        C  0.53924267  0.47232596  0.01034274    -0.26500
O259        O  0.60159135  0.53967773  0.47749704    -0.58400
H260        H  0.61820551  0.50372947  0.48265708     0.16200
O261        O  0.53358486  0.42752361  0.02314326    -0.59800
H262        H  0.51700029  0.46326756  0.01765260     0.14600
H263        H  0.55830554  0.59527003  0.02259900     0.46500
H264        H  0.61285921  0.55227809  0.49500480     0.41900
H265        H  0.52430409  0.41528651  0.00481038     0.45300
H266        H  0.52513160  0.49555695  0.43743511     0.36800
C267        C  0.59103659  0.33697042  0.14719799    -0.27400
C268        C  0.61510844  0.35984539  0.13157824     0.02200
C269        C  0.64329320  0.36829517  0.14055660     0.30200
C270        C  0.64699890  0.35407088  0.16476793    -0.19200
C271        C  0.62288359  0.33098699  0.18038754    -0.28600
C272        C  0.59463345  0.32252602  0.17118124     0.44300
C273        C  0.61051158  0.37420355  0.10554629     0.05500
O274        O  0.66742457  0.39016567  0.12552576    -0.57200
H275        H  0.66892655  0.36109638  0.17114057     0.18400
O276        O  0.57021291  0.29985866  0.18504309    -0.63900
H277        H  0.56919142  0.33025822  0.14084138     0.16800
C278        C  0.59136497  0.35771695  0.08154491     0.29100
C279        C  0.58802397  0.37157376  0.05676936    -0.24800
C280        C  0.60360056  0.40192015  0.05524552    -0.24100
C281        C  0.62242752  0.41844895  0.07931509     0.40500
C282        C  0.62563149  0.40459794  0.10429031    -0.26500
O283        O  0.57632461  0.32803687  0.08165316    -0.58400
H284        H  0.57356376  0.35856585  0.03833388     0.16200
O285        O  0.63846653  0.44814985  0.07819298    -0.59800
H286        H  0.64020699  0.41767086  0.12260814     0.14600
H287        H  0.56491999  0.30885401  0.20106032     0.46500
H288        H  0.59007355  0.32350019  0.07319612     0.41900
H289        H  0.65644508  0.45375153  0.06679689     0.45300
H290        H  0.67028203  0.38068071  0.10793428     0.36800
C291        C  0.59688821  0.39073019  0.39214112    -0.27400
C292        C  0.62025935  0.38729430  0.39039801     0.02200
C293        C  0.64093808  0.39841454  0.41408224     0.30200
C294        C  0.63717356  0.41116600  0.43967194    -0.19200
C295        C  0.61278864  0.41290914  0.44239137    -0.28600
C296        C  0.59296270  0.40327375  0.41790532     0.44300
C297        C  0.62200656  0.37057295  0.36489198     0.05500
O298        O  0.66426489  0.39581844  0.41309456    -0.57200
H299        H  0.65287130  0.41879789  0.45803613     0.18400
O300        O  0.56893512  0.40469524  0.41946960    -0.63900
H301        H  0.58110943  0.38284410  0.37384833     0.16800
C302        C  0.59854602  0.34209422  0.35849255     0.29100
C303        C  0.60119150  0.32597459  0.33560504    -0.24800
C304        C  0.62709202  0.33772467  0.31859204    -0.24100
C305        C  0.65054267  0.36641751  0.32503025     0.40500
C306        C  0.64774798  0.38253774  0.34778399    -0.26500
O307        O  0.57346037  0.32927754  0.37558528    -0.58400
H308        H  0.58289575  0.30400912  0.33148757     0.16200
O309        O  0.67625943  0.37918900  0.30908642    -0.59800
H310        H  0.66592273  0.40449556  0.35224295     0.14600
H311        H  0.55378037  0.38659294  0.42992182     0.46500
H312        H  0.55893919  0.32932810  0.36233246     0.41900
H313        H  0.68906677  0.37584364  0.32165430     0.45300
H314        H  0.65715634  0.37665257  0.42234444     0.36800
C315        C  0.40963678  0.95940063  0.48426349    -0.27400
C316        C  0.42096215  0.94605975  0.00085684     0.02200
C317        C  0.44594594  0.96318973  0.01882532     0.30200
C318        C  0.45958145  0.99324259  0.01977631    -0.19200
C319        C  0.44866370  0.00679781  0.50292484    -0.28600
C320        C  0.42345225  0.98959014  0.48505411     0.44300
C321        C  0.40741714  0.91444580  0.99857057     0.05500
O322        O  0.45741902  0.95073002  0.03525262    -0.57200
H323        H  0.47909668  0.00607626  0.03334212     0.18400
O324        O  0.41218128  0.00202457  0.46824308    -0.63900
H325        H  0.39052492  0.94645063  0.47016601     0.16800
C326        C  0.37943184  0.89448755  0.01047318     0.29100
C327        C  0.36818705  0.86475820  0.01012232    -0.24800
C328        C  0.38433156  0.85461223  0.99731153    -0.24100
C329        C  0.41186882  0.87455473  0.48501923     0.40500
C330        C  0.42324242  0.90421492  0.48582482    -0.26500
O331        O  0.36352653  0.90393884  0.02367501    -0.58400
H332        H  0.34685211  0.84958436  0.01985595     0.16200
O333        O  0.42837040  0.86535488  0.47282243    -0.59800
H334        H  0.44486822  0.91941147  0.47674576     0.14600
H335        H  0.39931244  0.00387120  0.48255974     0.46500
H336        H  0.35022296  0.90232047  0.00742664     0.41900
H337        H  0.43890603  0.86406217  0.49038894     0.45300
H338        H  0.44674440  0.94499172  0.05500026     0.36800
C339        C  0.51034432  0.14426497  0.41829537    -0.27400
C340        C  0.52771788  0.14021938  0.39821141     0.02200
C341        C  0.53039950  0.11661834  0.40290908     0.30200
C342        C  0.51662235  0.09808217  0.42787452    -0.19200
C343        C  0.50012935  0.10275242  0.44855510    -0.28600
C344        C  0.49659078  0.12573272  0.44329660     0.44300
C345        C  0.54412263  0.16144470  0.37335423     0.05500
O346        O  0.54705418  0.11191655  0.38363529    -0.57200
H347        H  0.51975913  0.08067032  0.43175635     0.18400
O348        O  0.48038440  0.13072050  0.46295414    -0.63900
H349        H  0.50819318  0.16239236  0.41515612     0.16800
C350        C  0.52996045  0.16811265  0.35156249     0.29100
C351        C  0.54604314  0.18784051  0.32799857    -0.24800
C352        C  0.57633608  0.20120514  0.32573179    -0.24100
C353        C  0.59052138  0.19496308  0.34806026     0.40500
C354        C  0.57443393  0.17527330  0.37153310    -0.26500
O355        O  0.50025760  0.15433377  0.35221048    -0.58400
H356        H  0.53463274  0.19211979  0.31101568     0.16200
O357        O  0.62011465  0.20796144  0.34725017    -0.59800
H358        H  0.58572355  0.17081700  0.38850103     0.14600
H359        H  0.45988666  0.11789260  0.95546347     0.46500
H360        H  0.49672479  0.16890067  0.36017896     0.41900
H361        H  0.62837376  0.22675846  0.35787358     0.45300
H362        H  0.53384040  0.09997769  0.36677310     0.36800
C363        C  0.54515953  0.13169357  0.09258091    -0.27400
C364        C  0.52778356  0.13508620  0.11333426     0.02200
C365        C  0.49756964  0.12017632  0.10818912     0.30200
C366        C  0.48527257  0.10260177  0.08229496    -0.19200
C367        C  0.50286613  0.09982430  0.06133111    -0.28600
C368        C  0.53289283  0.11416320  0.06680876     0.44300
C369        C  0.54173828  0.15496187  0.13963406     0.05500
O370        O  0.47999611  0.12299087  0.12806840    -0.57200
H371        H  0.46214993  0.09175142  0.07813306     0.18400
O372        O  0.55053776  0.11179380  0.04658077    -0.63900
H373        H  0.56845622  0.14324854  0.09598224     0.16800
C374        C  0.55925786  0.15158134  0.16008021     0.29100
C375        C  0.57388985  0.17168347  0.18354184    -0.24800
C376        C  0.57162720  0.19562929  0.18703739    -0.24100
C377        C  0.55361918  0.19869676  0.16674703     0.40500
C378        C  0.53882594  0.17840804  0.14338361    -0.26500
O379        O  0.56158347  0.12822540  0.15774896    -0.58400
H380        H  0.58717726  0.16848096  0.19898780     0.16200
O381        O  0.55064401  0.22162969  0.16910404    -0.59800
H382        H  0.52564090  0.18144335  0.12759561     0.14600
H383        H  0.54940850  0.09397857  0.05279320     0.46500
H384        H  0.58131642  0.13607064  0.14930421     0.41900
H385        H  0.56615408  0.23698577  0.15583810     0.45300
H386        H  0.47480735  0.10838170  0.14427768     0.36800
C387        C  0.94371984  0.37692831  0.48220495    -0.27400
C388        C  0.95452417  0.36204670  0.49633227     0.02200
C389        C  0.93512192  0.33550244  0.01115973     0.30200
C390        C  0.90532905  0.32447509  0.01227050    -0.19200
C391        C  0.89453176  0.33941312  0.49815606    -0.28600
C392        C  0.91396035  0.36577346  0.48293744     0.44300
C393        C  0.98629490  0.37573096  0.49762234     0.05500
O394        O  0.94532035  0.32094850  0.02576433    -0.57200
H395        H  0.89063944  0.30424066  0.02411570     0.18400
O396        O  0.90416246  0.38114574  0.46937082    -0.63900
H397        H  0.95852193  0.39751020  0.47099117     0.16800
C398        C  0.99985233  0.36403900  0.48194132     0.29100
C399        C  0.03017518  0.37807482  0.48320930    -0.24800
C400        C  0.04723242  0.40377403  0.50004863    -0.24100
C401        C  0.03344228  0.41547336  0.01570388     0.40500
C402        C  0.00324264  0.40144144  0.01437274    -0.26500
O403        O  0.98372275  0.33919368  0.46505026    -0.58400
H404        H  0.04042099  0.36897031  0.47094574     0.16200
O405        O  0.04937284  0.44100586  0.03155582    -0.59800
H406        H  0.99298796  0.41074327  0.02624273     0.14600
H407        H  0.90496681  0.39409166  0.48557705     0.46500
H408        H  0.98170590  0.34572242  0.44467869     0.41900
H409        H  0.05577200  0.45647427  0.01605452     0.45300
H410        H  0.94173487  0.30544607  0.01141155     0.36800
C411        C  0.75694746  0.32528618  0.34986363    -0.27400
C412        C  0.75278528  0.30120106  0.36559214     0.02200
C413        C  0.72948184  0.27325685  0.35748362     0.30200
C414        C  0.71041331  0.26973357  0.33429226    -0.19200
C415        C  0.71416380  0.29381573  0.31872115    -0.28600
C416        C  0.73802658  0.32180406  0.32647361     0.44300
C417        C  0.77112556  0.30564083  0.39230754     0.05500
O418        O  0.72404865  0.24944205  0.37349176    -0.57200
H419        H  0.69221057  0.24800907  0.32900569     0.18400
O420        O  0.74300629  0.34594475  0.31160648    -0.63900
H421        H  0.77481391  0.34692965  0.35599747     0.16800
C422        C  0.78733436  0.29302994  0.39407234     0.29100
C423        C  0.80278514  0.29610092  0.42070752    -0.24800
C424        C  0.80244712  0.31184709  0.44569341    -0.24100
C425        C  0.78706351  0.32531775  0.44336851     0.40500
C426        C  0.77151373  0.32205919  0.41689963    -0.26500
O427        O  0.78808307  0.27759068  0.36999565    -0.58400
H428        H  0.81472048  0.28583868  0.42201892     0.16200
O429        O  0.78708660  0.34176176  0.46683781    -0.59800
H430        H  0.75928320  0.33202443  0.41574242     0.14600
H431        H  0.75579957  0.34878894  0.29407908     0.46500
H432        H  0.80503719  0.29198938  0.35744269     0.41900
H433        H  0.80521729  0.36123042  0.46405324     0.45300
H434        H  0.72951567  0.23910590  0.35947590     0.36800
C435        C  0.78034517  0.32575196  0.09189571    -0.27400
C436        C  0.77096501  0.30181773  0.11108100     0.02200
C437        C  0.77957905  0.28266213  0.10446197     0.30200
C438        C  0.79666385  0.28721716  0.07852649    -0.19200
C439        C  0.80519989  0.31069265  0.05898361    -0.28600
C440        C  0.79738101  0.33029531  0.06611396     0.44300
C441        C  0.75105636  0.29648756  0.13690502     0.05500
O442        O  0.77089264  0.25912689  0.12279460    -0.57200
H443        H  0.80244005  0.27191657  0.07310369     0.18400
O444        O  0.80543897  0.35341222  0.04733216    -0.63900
H445        H  0.77364778  0.34048634  0.09636224     0.16800
C446        C  0.75821640  0.31831199  0.15846930     0.29100
C447        C  0.73817302  0.31369118  0.18123503    -0.24800
C448        C  0.71071041  0.28743012  0.18299506    -0.24100
C449        C  0.70373894  0.26539150  0.16164103     0.40500
C450        C  0.72384426  0.27003969  0.13887748    -0.26500
O451        O  0.78512918  0.34390029  0.15798984    -0.58400
H452        H  0.74429452  0.33073655  0.19772060     0.16200
O453        O  0.67718335  0.23944625  0.16237507    -0.59800
H454        H  0.71784173  0.25318278  0.12218453     0.14600
H455        H  0.82540681  0.36881868  0.05381471     0.46500
H456        H  0.78172922  0.35871766  0.15063355     0.41900
H457        H  0.66430931  0.24239256  0.14942356     0.45300
H458        H  0.78530130  0.26657226  0.13959232     0.36800
C459        C  0.86304809  0.32765158  0.99982442     0.03300
C460        C  0.84895115  0.32220602  0.52821310    -0.12900
C461        C  0.81967529  0.31321457  0.52954873     0.00800
C462        C  0.80439822  0.30892789  0.50245887    -0.11400
C463        C  0.81820589  0.31432423  0.97405942     0.03300
C464        C  0.84747033  0.32335980  0.97284601    -0.10800
H465        H  0.86099802  0.32617567  0.54917710     0.08900
H466        H  0.78173546  0.30184965  0.50363493     0.06400
H467        H  0.85838136  0.32781974  0.95092116     0.06300
C468        C  0.46442487  0.03889306  0.00364870     0.03300
C469        C  0.47348733  0.05370247  0.53177331    -0.12900
C470        C  0.49063793  0.08405281  0.53249013     0.00800
C471        C  0.49807871  0.09971940  0.00516644    -0.11400
C472        C  0.48919763  0.08543385  0.97700659     0.03300
C473        C  0.47251934  0.05499074  0.97631113    -0.10800
H474        H  0.46793276  0.04166166  0.55300296     0.08900
H475        H  0.51193959  0.12319389  0.00583219     0.06400
H476        H  0.46660996  0.04392214  0.95449759     0.06300
C477        C  0.59090647  0.44794474  0.50174993     0.03300
C478        C  0.59850085  0.44152053  0.97340295    -0.12900
C479        C  0.60696594  0.42184963  0.97186734     0.00800
C480        C  0.60838324  0.40915077  0.49914445    -0.11400
C481        C  0.60166135  0.41587084  0.52748967     0.03300
C482        C  0.59279640  0.43524571  0.52870873    -0.10800
H483        H  0.59711296  0.45135075  0.95266160     0.08900
H484        H  0.61458879  0.39370002  0.49818307     0.06400
H485        H  0.58695989  0.44008097  0.55046497     0.06300
Fe486      Fe  0.64294285  0.24252157  0.75349051     1.65800
Fe487      Fe  0.59691196  0.26563824  0.75352577     1.73200
Fe488      Fe  0.67063273  0.31499328  0.74977219     1.54400
O489        O  0.69175401  0.31000750  0.78567263    -0.81500
O490        O  0.60547101  0.29589215  0.72029537    -0.79800
O491        O  0.67731007  0.26375641  0.78341451    -0.84000
O492        O  0.67080608  0.25806753  0.71641297    -0.78900
O493        O  0.65344470  0.32985004  0.78085958    -0.80600
O494        O  0.58259323  0.23521033  0.71909359    -0.83400
C495        C  0.69008236  0.28344308  0.70730250     0.97400
C496        C  0.69327236  0.28904342  0.79447945     1.04800
O497        O  0.63684078  0.27439437  0.75226944    -1.12400
O498        O  0.58265975  0.23399820  0.78690942    -0.74800
O499        O  0.61599148  0.22339254  0.79082179    -0.78300
O500        O  0.69280712  0.30593145  0.71861950    -0.79000
C501        C  0.59274003  0.22078774  0.79972904     0.96300
O502        O  0.60945348  0.21683424  0.72363026    -0.76900
O503        O  0.60673921  0.29522175  0.78797997    -0.82100
C504        C  0.62755186  0.31623907  0.70617515     0.98900
C505        C  0.62928645  0.31988632  0.79439794     1.04800
O506        O  0.65335325  0.32452501  0.71340066    -0.77800
C507        C  0.58880446  0.21714246  0.71140072     1.03100
C508        C  0.07933539  0.41924013  0.00031138     0.03300
C509        C  0.09470762  0.42687185  0.97246283    -0.12900
C510        C  0.12527257  0.44414580  0.97211394     0.00800
C511        C  0.14026452  0.45342974  0.99984722    -0.11400
C512        C  0.12535505  0.44654011  0.52750795     0.03300
C513        C  0.09486707  0.42876081  0.52770763    -0.10800
H514        H  0.08289400  0.42030497  0.95108446     0.08900
H515        H  0.16381930  0.46745924  0.99970693     0.06400
H516        H  0.08318880  0.42348049  0.54922665     0.06300
C517        C  0.37231168  0.82324060  0.49768668     0.03300
C518        C  0.36587376  0.80835313  0.52562853    -0.12900
C519        C  0.35602155  0.77896083  0.52608082     0.00800
C520        C  0.35219213  0.76447990  0.49851546    -0.11400
C521        C  0.35892209  0.77909814  0.97049691     0.03300
C522        C  0.36905617  0.80858056  0.97020258    -0.10800
H523        H  0.36902592  0.81972307  0.54692245     0.08900
H524        H  0.34454609  0.74175077  0.49896134     0.06400
H525        H  0.37474267  0.82024137  0.94872118     0.06300
C526        C  0.49446709  0.55775667  0.49687911     0.03300
C527        C  0.48385028  0.56019054  0.52528727    -0.12900
C528        C  0.46408541  0.56855719  0.52670274     0.00800
C529        C  0.45558569  0.57533605  0.49973777    -0.11400
C530        C  0.46514215  0.57228158  0.97100432     0.03300
C531        C  0.48486259  0.56376591  0.96964052    -0.10800
H532        H  0.48959892  0.55399725  0.54613126     0.08900
H533        H  0.44036426  0.58188990  0.50097319     0.06400
H534        H  0.49184221  0.56076080  0.94761492     0.06300
Fe535      Fe  0.35616781  0.62912132  0.74669808     1.65800
Fe536      Fe  0.30568893  0.55571490  0.74899986     1.73200
Fe537      Fe  0.28344486  0.60252008  0.74948219     1.54400
O538        O  0.30321005  0.63439248  0.78207332    -0.81500
O539        O  0.27456931  0.54169111  0.71515859    -0.79800
O540        O  0.35040135  0.65200204  0.77978178    -0.84000
O541        O  0.34859060  0.64952494  0.71219718    -0.78900
O542        O  0.26131466  0.57345512  0.78445778    -0.80600
O543        O  0.33556961  0.56340784  0.71534514    -0.83400
C544        C  0.32654816  0.64906504  0.70296251     0.97400
C545        C  0.32910873  0.65185559  0.79102418     1.04800
O546        O  0.31510751  0.59577126  0.74836902    -1.12400
O547        O  0.33573278  0.56517277  0.78286198    -0.74800
O548        O  0.36870289  0.61274553  0.78097173    -0.78300
O549        O  0.30145542  0.63260579  0.71469598    -0.79000
C550        C  0.35895336  0.58788185  0.79233235     0.96300
O551        O  0.36784610  0.61098760  0.71351223    -0.76900
O552        O  0.27448613  0.54213806  0.78284835    -0.82100
C553        C  0.25824149  0.54969468  0.70595134     0.98900
C554        C  0.25945699  0.55092277  0.79411068     1.04800
O555        O  0.25943840  0.57145041  0.71709029    -0.77800
C556        C  0.35841360  0.58554693  0.70436442     1.03100
C557        C  0.45381804  0.59408482  0.89232589    -0.27400
C558        C  0.42333389  0.57978488  0.89194739     0.02200
C559        C  0.40706628  0.56299230  0.91741579     0.30200
C560        C  0.42106054  0.56037304  0.94238192    -0.19200
C561        C  0.45149708  0.57480211  0.94306066    -0.28600
C562        C  0.46794102  0.59168172  0.91766992     0.44300
C563        C  0.40827981  0.58220081  0.86520924     0.05500
O564        O  0.37738247  0.54931084  0.91836142    -0.57200
H565        H  0.40795423  0.54706382  0.96153011     0.18400
O566        O  0.49776609  0.60691489  0.91800721    -0.63900
H567        H  0.46669483  0.60704916  0.87291965     0.16800
C568        C  0.41598617  0.60931683  0.85377641     0.29100
C569        C  0.39977001  0.61079856  0.83015118    -0.24800
C570        C  0.37563558  0.58547319  0.81746090    -0.24100
C571        C  0.36816422  0.55831523  0.82891027     0.40500
C572        C  0.38466389  0.55691906  0.85215949    -0.26500
O573        O  0.43832270  0.63449720  0.86663419    -0.58400
H574        H  0.40597389  0.63197557  0.82208192     0.16200
O575        O  0.34494189  0.53288718  0.81750191    -0.59800
H576        H  0.37865039  0.53584713  0.86041211     0.14600
H577        H  0.50288585  0.59609521  0.90431021     0.46500
H578        H  0.45463370  0.64240570  0.85177625     0.41900
H579        H  0.32839053  0.52773216  0.83125503     0.45300
H580        H  0.37404430  0.56402427  0.92629261     0.36800
C581        C  0.38688312  0.55203904  0.65100040    -0.27400
C582        C  0.40789746  0.57628913  0.63409120     0.02200
C583        C  0.41260496  0.60347993  0.64036872     0.30200
C584        C  0.39629501  0.60607788  0.66316586    -0.19200
C585        C  0.37504817  0.58180876  0.68011136    -0.28600
C586        C  0.37052545  0.55456413  0.67381306     0.44300
C587        C  0.42295096  0.57250602  0.60825952     0.05500
O588        O  0.43186424  0.62728444  0.62309841    -0.57200
H589        H  0.40006634  0.62719575  0.66721573     0.18400
O590        O  0.35069834  0.53035026  0.69020158    -0.63900
H591        H  0.38300617  0.53096150  0.64632220     0.16800
C592        C  0.45358501  0.58819791  0.60635002     0.29100
C593        C  0.46699604  0.58596118  0.58018187    -0.24800
C594        C  0.45012585  0.56812523  0.55581808    -0.24100
C595        C  0.41953176  0.55123370  0.55855760     0.40500
C596        C  0.40620674  0.55354558  0.58456211    -0.26500
O597        O  0.47056076  0.60612955  0.62964989    -0.58400
H598        H  0.49053436  0.59886291  0.57846825     0.16200
O599        O  0.40242277  0.53293940  0.53551368    -0.59800
H600        H  0.38264732  0.54111993  0.58583155     0.14600
H601        H  0.33286776  0.52026452  0.67749891     0.46500
H602        H  0.47183224  0.59335420  0.64448307     0.41900
H603        H  0.40171494  0.51485939  0.53890080     0.45300
H604        H  0.44854533  0.63985972  0.63676482     0.36800
C605        C  0.33784716  0.74748097  0.89046982    -0.27400
C606        C  0.34831225  0.72943784  0.89025540     0.02200
C607        C  0.36313673  0.72869667  0.91593005     0.30200
C608        C  0.36724358  0.74572694  0.94135743    -0.19200
C609        C  0.35625197  0.76333945  0.94201523    -0.28600
C610        C  0.34158308  0.76426552  0.91618740     0.44300
C611        C  0.34331109  0.71090564  0.86356603     0.05500
O612        O  0.37317788  0.71090724  0.91663529    -0.57200
H613        H  0.37875024  0.74484201  0.96088136     0.18400
O614        O  0.33013668  0.78082498  0.91612219    -0.63900
H615        H  0.32650241  0.74831376  0.87076628     0.16800
C616        C  0.31495625  0.68996239  0.85368894     0.29100
C617        C  0.31070023  0.67107183  0.82997499    -0.24800
C618        C  0.33449185  0.67276006  0.81558967    -0.24100
C619        C  0.36297556  0.69435568  0.82518106     0.40500
C620        C  0.36711376  0.71308728  0.84897987    -0.26500
O621        O  0.29123220  0.68671485  0.86824075    -0.58400
H622        H  0.28859282  0.65473788  0.82324256     0.16200
O623        O  0.38698781  0.69708274  0.81201051    -0.59800
H624        H  0.38907020  0.72925545  0.85633968     0.14600
H625        H  0.31053894  0.76840541  0.92549043     0.46500
H626        H  0.28454862  0.69626148  0.85472457     0.41900
H627        H  0.39288831  0.71146164  0.79536055     0.45300
H628        H  0.35638425  0.69183933  0.92366991     0.36800
C629        C  0.31438881  0.69535733  0.64930515    -0.27400
C630        C  0.33898201  0.70749607  0.63029288     0.02200
C631        C  0.35941363  0.70016858  0.63515826     0.30200
C632        C  0.35517360  0.68124190  0.65887404    -0.19200
C633        C  0.33036764  0.66882237  0.67776708    -0.28600
C634        C  0.30984872  0.67607715  0.67266028     0.44300
C635        C  0.34259004  0.72704381  0.60495320     0.05500
O636        O  0.38336452  0.71098584  0.61656434    -0.57200
H637        H  0.37118684  0.67594995  0.66215608     0.18400
O638        O  0.28530862  0.66467005  0.69043106    -0.63900
H639        H  0.29860125  0.70096140  0.64612932     0.16800
C640        C  0.31983838  0.71861857  0.58406094     0.29100
C641        C  0.32401050  0.73659733  0.55946850    -0.24800
C642        C  0.35078546  0.76300533  0.55499193    -0.24100
C643        C  0.37333715  0.77185085  0.57619428     0.40500
C644        C  0.36906695  0.75400954  0.60109475    -0.26500
O645        O  0.29375684  0.69236980  0.58680922    -0.58400
H646        H  0.30656852  0.72943409  0.54316408     0.16200
O647        O  0.39998014  0.79725885  0.57208337    -0.59800
H648        H  0.38667510  0.76100859  0.61711984     0.14600
H649        H  0.29104996  0.67833830  0.70774642     0.46500
H650        H  0.29661598  0.67833886  0.57608699     0.41900
H651        H  0.41114339  0.79214089  0.55886659     0.45300
H652        H  0.37674670  0.69734149  0.59911676     0.36800
C653        C  0.18052271  0.50273046  0.58239338    -0.27400
C654        C  0.17670633  0.48594909  0.60817468     0.02200
C655        C  0.15455688  0.45611379  0.60812564     0.30200
C656        C  0.13732007  0.44340763  0.58199115    -0.19200
C657        C  0.14194460  0.46018591  0.55587508    -0.28600
C658        C  0.16315467  0.49025481  0.55668282     0.44300
C659        C  0.19595013  0.50054393  0.63479405     0.05500
O660        O  0.14891893  0.43959136  0.63382923    -0.57200
H661        H  0.12068445  0.42037787  0.58195407     0.18400
O662        O  0.16707517  0.50775831  0.53241350    -0.63900
H663        H  0.19721193  0.52575489  0.58213757     0.16800
C664        C  0.21279952  0.49106893  0.64731490     0.29100
C665        C  0.23269342  0.50700960  0.67065582    -0.24800
C666        C  0.23674488  0.53296069  0.68140918    -0.24100
C667        C  0.22000569  0.54252460  0.66840999     0.40500
C668        C  0.19965049  0.52615868  0.64576044    -0.26500
O669        O  0.21076927  0.46685007  0.63624301    -0.58400
H670        H  0.24531799  0.49920792  0.67997010     0.18400
O671        O  0.22343798  0.56799529  0.67730521    -0.59800
H672        H  0.18708142  0.53392538  0.63615741     0.14600
H673        H  0.15212049  0.51227072  0.53507376     0.46500
H674        H  0.22465326  0.47379813  0.61884684     0.41900
H675        H  0.23832736  0.58293883  0.66321049     0.45300
H676        H  0.15383375  0.42540505  0.62830697     0.36800
C677        C  0.20858734  0.48960116  0.84846140    -0.27400
C678        C  0.19852002  0.50290093  0.86714213     0.02200
C679        C  0.20884423  0.53219416  0.86196653     0.30200
C680        C  0.22867584  0.54753357  0.83817676    -0.19200
C681        C  0.23872501  0.53419538  0.81935392    -0.28600
C682        C  0.22840436  0.50487838  0.82476998     0.44300
C683        C  0.17834765  0.48618275  0.89274488     0.05500
O684        O  0.20101241  0.54643413  0.88113165    -0.57200
H685        H  0.23655912  0.57012237  0.83481345     0.18400
O686        O  0.23736142  0.49078021  0.80700807    -0.63900
H687        H  0.20090131  0.46710400  0.85218222     0.16800
C688        C  0.15180536  0.48399207  0.89667758     0.29100
C689        C  0.13398638  0.46911580  0.92190572    -0.24800
C690        C  0.14194351  0.45574723  0.94319299    -0.24100
C691        C  0.16760609  0.45645436  0.93816203     0.40500
C692        C  0.18565770  0.47178807  0.91332731    -0.26500
O693        O  0.14314518  0.49644192  0.87615209    -0.58400
H694        H  0.11437201  0.46884844  0.92534875     0.16200
O695        O  0.17558497  0.44273714  0.95777048    -0.59800
H696        H  0.20575157  0.47284984  0.91041718     0.14600
H697        H  0.22278682  0.48160076  0.79041935     0.46500
H698        H  0.13313523  0.48189113  0.85968979     0.41900
H699        H  0.16441259  0.42222014  0.95106309     0.45300
H700        H  0.18942099  0.55132161  0.86846091     0.36800
C701        C  0.55118727  0.54107323  0.51560477    -0.27400
C702        C  0.54261792  0.51745557  0.99578664     0.02200
C703        C  0.52004371  0.50897030  0.97477310     0.30200
C704        C  0.50520184  0.52285376  0.97455976    -0.19200
C705        C  0.51273574  0.54563849  0.49535127    -0.28600
C706        C  0.53644387  0.55512340  0.51530152     0.44300
C707        C  0.55599959  0.50064303  0.99870049     0.05500
O708        O  0.51176597  0.48651390  0.95495393    -0.57200
H709        H  0.48709691  0.51514004  0.95904580     0.18400
O710        O  0.54507690  0.57777058  0.53495271    -0.63900
H711        H  0.56871011  0.54793935  0.53171390     0.16800
C712        C  0.58487601  0.51218079  0.98939320     0.29100
C713        C  0.59630097  0.49501282  0.99081794    -0.24800
C714        C  0.57943590  0.46662092  0.50244347    -0.24100
C715        C  0.55087572  0.45554741  0.51271060     0.40500
C716        C  0.53940346  0.47258255  0.51083169    -0.26500
O717        O  0.60160274  0.53970851  0.97767002    -0.58400
H718        H  0.61830056  0.50382741  0.98281863     0.16200
O719        O  0.53370355  0.42779016  0.52377306    -0.59800
H720        H  0.51722424  0.46361674  0.51831244     0.14600
H721        H  0.55840995  0.59546241  0.52282200     0.46500
H722        H  0.61278064  0.55218983  0.99528161     0.41900
H723        H  0.52425107  0.41546474  0.50553375     0.45300
H724        H  0.52505234  0.49542498  0.93714170     0.36800
C725        C  0.59109946  0.33710170  0.64743566    -0.27400
C726        C  0.61516286  0.35982631  0.63167104     0.02200
C727        C  0.64333969  0.36813792  0.64047620     0.30200
C728        C  0.64705471  0.35389215  0.66465662    -0.19200
C729        C  0.62294695  0.33095965  0.68044264    -0.28600
C730        C  0.59470146  0.32268510  0.67144391     0.44300
C731        C  0.61055067  0.37417319  0.60566450     0.05500
O732        O  0.66744313  0.38989595  0.62530716    -0.57200
H733        H  0.66897765  0.36078592  0.67088141     0.18400
O734        O  0.57028865  0.30025310  0.68556239    -0.63900
H735        H  0.56926598  0.33050529  0.64117697     0.16800
C736        C  0.59153709  0.35767875  0.58159341     0.29100
C737        C  0.58813091  0.37151885  0.55684973    -0.24800
C738        C  0.60350734  0.40186284  0.55544138    -0.24100
C739        C  0.62219533  0.41839301  0.57960596     0.40500
C740        C  0.62548872  0.40455071  0.60452986    -0.26500
O741        O  0.57669090  0.32801200  0.58161859    -0.58400
H742        H  0.57377572  0.35850381  0.53835246     0.16200
O743        O  0.63801386  0.44809181  0.57863058    -0.59800
H744        H  0.63998032  0.41760995  0.62290803     0.14600
H745        H  0.56530648  0.30947567  0.70162184     0.46500
H746        H  0.59056286  0.32364387  0.57315102     0.41900
H747        H  0.65609327  0.45390331  0.56732038     0.45300
H748        H  0.67013624  0.38031571  0.60769245     0.36800
C749        C  0.59709171  0.39087254  0.89194573    -0.27400
C750        C  0.62048789  0.38747494  0.89018954     0.02200
C751        C  0.64118911  0.39864464  0.91385848     0.30200
C752        C  0.63740250  0.41137207  0.93945522    -0.19200
C753        C  0.61297620  0.41304021  0.94219760    -0.28600
C754        C  0.59313804  0.40337731  0.91772251     0.44300
C755        C  0.62221522  0.37071320  0.86470964     0.05500
O756        O  0.66455522  0.39611167  0.91285932    -0.57200
H757        H  0.65311115  0.41903442  0.95781137     0.18400
O758        O  0.56906553  0.40472187  0.91931553    -0.63900
H759        H  0.58130402  0.38297086  0.87366108     0.16800
C760        C  0.59868486  0.34228087  0.85824715     0.29100
C761        C  0.60130884  0.32611042  0.83540744    -0.24800
C762        C  0.62725709  0.33775346  0.81851248    -0.24100
C763        C  0.65078096  0.36639436  0.82501587     0.40500
C764        C  0.64800213  0.38257609  0.84770271    -0.26500
O765        O  0.57354408  0.32954850  0.87523955    -0.58400
H766        H  0.58295385  0.30418761  0.83123504     0.16200
O767        O  0.67656677  0.37904973  0.80921879    -0.59800
H768        H  0.66623096  0.40449820  0.85219592     0.14600
H769        H  0.55394537  0.38659833  0.92976263     0.46500
H770        H  0.55908077  0.32958437  0.86187206     0.41900
H771        H  0.68921496  0.37553665  0.82185805     0.45300
H772        H  0.65749819  0.37696833  0.92213642     0.36800
C773        C  0.40970265  0.95937613  0.98427947    -0.27400
C774        C  0.42074073  0.94601867  0.50099518     0.02200
C775        C  0.44563135  0.96309989  0.51910563     0.30200
C776        C  0.45935508  0.99316744  0.52000640    -0.19200
C777        C  0.44871706  0.00680256  0.00286722    -0.28600
C778        C  0.42344120  0.98955192  0.98510352     0.44300
C779        C  0.40718293  0.91439870  0.49866737     0.05500
O780        O  0.45693747  0.95057799  0.53571402    -0.57200
H781        H  0.47880903  0.00595456  0.53367108     0.18400
O782        O  0.41203467  0.00193384  0.96843276    -0.63900
H783        H  0.39052107  0.94638526  0.97028675     0.16800
C784        C  0.37910160  0.89441584  0.51033951     0.29100
C785        C  0.36784403  0.86467952  0.50994879    -0.24800
C786        C  0.38407124  0.85455315  0.49731269    -0.24100
C787        C  0.41203833  0.87458937  0.98480343     0.40500
C788        C  0.42339898  0.90424699  0.98555835    -0.26500
O789        O  0.36310576  0.90384443  0.52335868    -0.58400
H790        H  0.34643820  0.84948620  0.51951908     0.16200
O791        O  0.42846708  0.86537148  0.97244469    -0.59800
H792        H  0.44495511  0.91942935  0.97631087     0.14600
H793        H  0.39914550  0.00366561  0.98283240     0.46500
H794        H  0.34991358  0.90225133  0.50699031     0.41900
H795        H  0.43913685  0.86414083  0.98991379     0.45300
H796        H  0.44614499  0.94487023  0.55539012     0.36800
C797        C  0.51028573  0.14419651  0.91821439    -0.27400
C798        C  0.52772483  0.14016898  0.89820920     0.02200
C799        C  0.53042376  0.11658676  0.90297815     0.30200
C800        C  0.51660708  0.09806113  0.92793876    -0.19200
C801        C  0.50004742  0.10271484  0.94853741    -0.28600
C802        C  0.49648254  0.12566540  0.94320463     0.44300
C803        C  0.54416508  0.16138652  0.87335507     0.05500
O804        O  0.54712902  0.11189004  0.88377914    -0.57200
H805        H  0.51976064  0.08066806  0.93188126     0.18400
O806        O  0.48019997  0.13062364  0.96277845    -0.63900
H807        H  0.50811825  0.16230805  0.91502377     0.16800
C808        C  0.53003991  0.16809846  0.85156216     0.29100
C809        C  0.54615375  0.18783301  0.82801638    -0.24800
C810        C  0.57644079  0.20115445  0.82575719    -0.24100
C811        C  0.59058808  0.19484929  0.84807000     0.40500
C812        C  0.57447136  0.17516470  0.87153705    -0.26500
O813        O  0.50034022  0.15435270  0.85218762    -0.58400
H814        H  0.53476841  0.19215020  0.81103895     0.16200
O815        O  0.62017011  0.20777516  0.84724831    -0.59800
H816        H  0.58573570  0.17067340  0.88850217     0.14600
H817        H  0.46004686  0.11800347  0.45570416     0.46500
H818        H  0.49682672  0.16895354  0.86008778     0.41900
H819        H  0.62847756  0.22656261  0.85790711     0.45300
H820        H  0.53395573  0.09994223  0.86689578     0.36800
C821        C  0.54524041  0.13169008  0.59264346    -0.27400
C822        C  0.52783099  0.13499588  0.61343186     0.02200
C823        C  0.49761519  0.12004825  0.60829377     0.30200
C824        C  0.48534296  0.10251641  0.58236882    -0.19200
C825        C  0.50296768  0.09983196  0.56136054    -0.28600
C826        C  0.53300178  0.11421535  0.56682945     0.44300
C827        C  0.54175417  0.15484609  0.63974829     0.05500
O828        O  0.48001676  0.12278942  0.62820914    -0.57200
H829        H  0.46221453  0.09162883  0.57821765     0.18400
O830        O  0.55067816  0.11193788  0.54656009    -0.63900
H831        H  0.56853884  0.14327363  0.59605085     0.16800
C832        C  0.55920925  0.15142028  0.66024227     0.29100
C833        C  0.57383698  0.17152029  0.68370716    -0.24800
C834        C  0.57163620  0.19550973  0.68714718    -0.24100
C835        C  0.55367957  0.19861197  0.66681457     0.40500
C836        C  0.53888687  0.17832282  0.64345447    -0.26500
O837        O  0.56148631  0.12803289  0.65794300    -0.58400
H838        H  0.58708165  0.16829058  0.69918968     0.16200
O839        O  0.55076498  0.22158616  0.66911909    -0.59800
H840        H  0.52574453  0.18138409  0.62762957     0.14600
H841        H  0.54953389  0.09409053  0.55266277     0.46500
H842        H  0.58119500  0.13583455  0.64945342     0.41900
H843        H  0.56632234  0.23692443  0.65587813     0.45300
H844        H  0.47492549  0.10821947  0.64443528     0.36800
C845        C  0.94367406  0.37687813  0.98218355    -0.27400
C846        C  0.95449322  0.36205138  0.99640625     0.02200
C847        C  0.93514269  0.33546551  0.51102433     0.30200
C848        C  0.90535280  0.32445039  0.51215259    -0.19200
C849        C  0.89449400  0.33939134  0.99819474    -0.28600
C850        C  0.91391079  0.36570855  0.98289567     0.44300
C851        C  0.98626628  0.37575749  0.99772769     0.05500
O852        O  0.94532739  0.32086296  0.52554899    -0.57200
H853        H  0.89065339  0.30418560  0.52394304     0.18400
O854        O  0.90409944  0.38103027  0.96923462    -0.63900
H855        H  0.95846733  0.39743118  0.97091442     0.16800
C856        C  0.99983943  0.36404013  0.98213113     0.29100
C857        C  0.03015789  0.37807023  0.98345517    -0.24800
C858        C  0.04719811  0.40379085  0.00026544    -0.24100
C859        C  0.03348840  0.41542533  0.51557665     0.40500
C860        C  0.00328816  0.40138841  0.51430139    -0.26500
O861        O  0.98372903  0.33917257  0.96526940    -0.58400
H862        H  0.04041549  0.36894587  0.97125357     0.16200
O863        O  0.04943043  0.44093495  0.53146549    -0.59800
H864        H  0.99304601  0.41067055  0.52623709     0.14600
H865        H  0.90484552  0.39398050  0.98539899     0.46500
H866        H  0.98174772  0.34567597  0.94486688     0.41900
H867        H  0.05584598  0.45642662  0.51598931     0.45300
H868        H  0.94171076  0.30537750  0.51115362     0.36800
C869        C  0.75707419  0.32527739  0.84978116    -0.27400
C870        C  0.75287939  0.30119587  0.86554896     0.02200
C871        C  0.72956571  0.27325181  0.85745861     0.30200
C872        C  0.71051423  0.26972436  0.83425003    -0.19200
C873        C  0.71428997  0.29380176  0.81864749    -0.28600
C874        C  0.73816641  0.32178983  0.82637428     0.44300
C875        C  0.77118803  0.30563726  0.89229001     0.05500
O876        O  0.72410012  0.24944437  0.87350740    -0.57200
H877        H  0.69229832  0.24800132  0.82898199     0.18400
O878        O  0.74316744  0.34592294  0.81146976    -0.63900
H879        H  0.77495043  0.34692055  0.85590136     0.16800
C880        C  0.78734602  0.29297690  0.89412018     0.29100
C881        C  0.80275145  0.29603507  0.92078545    -0.24800
C882        C  0.80241927  0.31181760  0.94573671    -0.24100
C883        C  0.78707543  0.32532532  0.94335351     0.40500
C884        C  0.77157209  0.32208198  0.91685181    -0.26500
O885        O  0.78808556  0.27749892  0.87007855    -0.58400
H886        H  0.81465280  0.28574002  0.92214453     0.16200
O887        O  0.78709430  0.34179224  0.96679449    -0.59800
H888        H  0.75937188  0.33207694  0.91564620     0.14600
H889        H  0.75596098  0.34874052  0.79395290     0.46500
H890        H  0.80512324  0.29184961  0.85759020     0.41900
H891        H  0.80524476  0.36124772  0.96402138     0.45300
H892        H  0.72952720  0.23906268  0.85951054     0.36800
C893        C  0.78046130  0.32569449  0.59193400    -0.27400
C894        C  0.77096918  0.30168023  0.61103067     0.02200
C895        C  0.77946645  0.28244769  0.60431873     0.30200
C896        C  0.79654857  0.28701015  0.57837966    -0.19200
C897        C  0.80520074  0.31057214  0.55892861    -0.28600
C898        C  0.79749465  0.33024463  0.56614824     0.44300
C899        C  0.75106116  0.29634822  0.63685449     0.05500
O900        O  0.77066800  0.25883254  0.62256312    -0.57200
H901        H  0.80223637  0.27165545  0.57288395     0.18400
O902        O  0.80565430  0.35343658  0.54744473    -0.63900
H903        H  0.77385114  0.34048804  0.59646998     0.16800
C904        C  0.75827996  0.31812836  0.65849834     0.29100
C905        C  0.73824379  0.31351256  0.68126908    -0.24800
C906        C  0.71073333  0.28730098  0.68295558    -0.24100
C907        C  0.70370158  0.26530432  0.66152494     0.40500
C908        C  0.72379783  0.26994763  0.63875361    -0.26500
O909        O  0.78523973  0.34366299  0.65809089    -0.58400
H910        H  0.74440720  0.33052110  0.69781675     0.16200
O911        O  0.67709601  0.23941036  0.66219067    -0.59800
H912        H  0.71775096  0.25312754  0.62199939     0.14600
H913        H  0.82566333  0.36874889  0.55391281     0.46500
H914        H  0.78191816  0.35855535  0.65081043     0.41900
H915        H  0.66427687  0.24245782  0.64926725     0.45300
H916        H  0.78504215  0.26617841  0.63938930     0.36800
loop_ 
_geom_bond_atom_site_label_1 
_geom_bond_atom_site_label_2 
_geom_bond_distance 
_geom_bond_site_symmetry_2 
_ccdc_geom_bond_type 
C1            C6   1.404       .  A
C1          C460   1.407       .  A
C1          C391   1.479       .  S
C2            C3   1.403       .  A
C2          C459   1.407   1_554  A
C2            H7   1.084       .  S
C3            C4   1.399       .  A
C3          C439   1.475       .  S
C4          C463   1.401   1_554  A
C4            H8   1.084       .  S
C5            C6   1.401       .  A
C5          C462   1.401       .  A
C5          C424   1.480       .  S
C6            H9   1.084       .  S
C10          C15   1.408       .  A
C10         C469   1.408       .  A
C10         C319   1.486       .  S
C11          C12   1.401       .  A
C11         C468   1.408       .  A
C11          H16   1.084       .  S
C12         C471   1.398       .  A
C12         C367   1.473       .  S
C13          C14   1.400       .  A
C13         C470   1.398       .  A
C13          H17   1.084       .  S
C14          C15   1.405       .  A
C14         C343   1.480       .  S
C15          H18   1.083       .  S
C19          C24   1.407       .  A
C19         C478   1.405   1_554  A
C19         C256   1.481       .  S
C20          C21   1.404       .  A
C20         C477   1.406       .  A
C20          H25   1.083       .  S
C21         C480   1.404       .  A
C21         C295   1.486       .  S
C22          C23   1.401   1_556  A
C22         C479   1.404       .  A
C22          H26   1.084       .  S
C23          C24   1.405       .  A
C23         C280   1.483       .  S
C24          H27   1.084       .  S
Fe28         O44   2.062       .  S
Fe28         O34   2.062       .  S
Fe28         O41   2.059       .  S
Fe28         O33   2.060       .  S
Fe28         O39   1.973       .  S
Fe29         O32   2.066       .  S
Fe29         O36   2.066       .  S
Fe29         O40   2.072       .  S
Fe29         O45   2.067       .  S
Fe29         O39   1.976       .  S
Fe30         O48   2.072       .  S
Fe30         O35   2.069       .  S
Fe30         O42   2.067       .  S
Fe30         O31   2.068       .  S
Fe30         O39   1.976       .  S
O31          C38   1.270       .  A
O32          C46   1.269       .  A
O33          C38   1.269       .  A
O34          C37   1.268       .  A
O35          C47   1.269       .  A
O36          C49   1.269       .  A
C37         C448   1.483       .  S
C37          O42   1.270       .  A
C38         C415   1.485       .  S
O40          C43   1.270       .  A
O41          C43   1.268       .  A
C43         C352   1.483       .  S
O44          C49   1.269       .  A
O45          C47   1.270       .  A
C46         C271   1.494       .  S
C46          O48   1.271       .  A
C47         C304   1.492       .  S
C49         C376   1.487       .  S
C50          C51   1.407       .  A
C50         C513   1.407       .  A
C50         C400   1.482       .  S
C51          C52   1.404       .  A
C51          H56   1.084       .  S
C52          C53   1.399       .  A
C52         C232   1.483       .  S
C53         C512   1.400       .  A
C53          H57   1.084       .  S
C54          C55   1.402       .  A
C54         C511   1.400   1_554  A
C54         C199   1.481       .  S
C55         C508   1.407       .  A
C55          H58   1.084       .  S
C59          C60   1.406   1_556  A
C59         C522   1.406       .  A
C59         C328   1.478       .  S
C60          C61   1.403       .  A
C60          H65   1.084       .  S
C61          C62   1.399   1_554  A
C61         C184   1.477       .  S
C62         C521   1.400       .  A
C62          H66   1.084       .  S
C63          C64   1.404       .  A
C63         C520   1.401       .  A
C63         C151   1.482       .  S
C64         C517   1.406       .  A
C64          H67   1.083       .  S
C68          C69   1.410   1_556  A
C68         C531   1.411       .  A
C68         C247   1.489       .  S
C69          C70   1.402       .  A
C69          H74   1.083       .  S
C70          C71   1.398   1_554  A
C70         C136   1.479       .  S
C71         C530   1.401       .  A
C71          H75   1.085   1_556  S
C72          C73   1.406       .  A
C72         C529   1.401       .  A
C72         C103   1.485       .  S
C73         C526   1.411       .  A
C73          H76   1.083       .  S
Fe77         O93   2.059       .  S
Fe77         O83   2.065       .  S
Fe77         O90   2.063       .  S
Fe77         O82   2.061       .  S
Fe77         O88   1.979       .  S
Fe78         O81   2.071       .  S
Fe78         O85   2.066       .  S
Fe78         O89   2.067       .  S
Fe78         O94   2.066       .  S
Fe78         O88   1.979       .  S
Fe79         O97   2.053       .  S
Fe79         O84   2.059       .  S
Fe79         O91   2.059       .  S
Fe79         O80   2.054       .  S
Fe79         O88   1.978       .  S
O80          C87   1.266       .  A
O81          C95   1.271       .  A
O82          C87   1.267       .  A
O83          C86   1.269       .  A
O84          C96   1.267       .  A
O85          C98   1.268       .  A
C86         C175   1.484       .  S
C86          O91   1.268       .  A
C87         C160   1.485       .  S
O89          C92   1.271       .  A
O90          C92   1.270       .  A
C92         C112   1.489       .  S
O93          C98   1.267       .  A
O94          C96   1.269       .  A
C95         C208   1.487       .  S
C95          O97   1.267       .  A
C96         C223   1.485       .  S
C98         C127   1.487       .  S
C99         C100   1.407       .  A
C99         C104   1.406       .  A
C99         H109   1.083       .  S
C100        C101   1.408       .  A
C100        C105   1.486       .  S
C101        C102   1.393       .  A
C101        O106   1.372       .  S
C102        C103   1.405       .  A
C102        H107   1.084       .  S
C103        C104   1.409       .  A
C104        O108   1.372       .  S
C105        C110   1.407       .  A
C105        C114   1.403       .  A
O106        H122   0.992       .  S
O108        H119   0.992       .  S
C110        C111   1.402       .  A
C110        O115   1.372       .  S
C111        C112   1.409       .  A
C111        H116   1.083       .  S
C112        C113   1.413       .  A
C113        C114   1.398       .  A
C113        O117   1.372       .  S
C114        H118   1.084       .  S
O115        H120   0.992       .  S
O117        H121   0.992       .  S
C123        C124   1.402       .  A
C123        C128   1.401       .  A
C123        H133   1.084       .  S
C124        C125   1.407       .  A
C124        C129   1.482       .  S
C125        C126   1.400       .  A
C125        O130   1.372       .  S
C126        C127   1.408       .  A
C126        H131   1.083       .  S
C127        C128   1.414       .  A
C128        O132   1.372       .  S
C129        C134   1.411       .  A
C129        C138   1.402       .  A
O130        H146   0.992       .  S
O132        H143   0.992       .  S
C134        C135   1.403       .  A
C134        O139   1.371       .  S
C135        C136   1.403       .  A
C135        H140   1.083       .  S
C136        C137   1.410       .  A
C137        C138   1.396       .  A
C137        O141   1.372       .  S
C138        H142   1.084       .  S
O139        H144   0.992       .  S
O141        H145   0.992       .  S
C147        C148   1.404       .  A
C147        C152   1.401       .  A
C147        H157   1.083       .  S
C148        C149   1.406       .  A
C148        C153   1.477       .  S
C149        C150   1.394       .  A
C149        O154   1.372       .  S
C150        C151   1.405       .  A
C150        H155   1.084       .  S
C151        C152   1.410       .  A
C152        O156   1.371       .  S
C153        C158   1.405       .  A
C153        C162   1.401       .  A
O154        H170   0.992       .  S
O156        H167   0.992       .  S
C158        C159   1.398       .  A
C158        O163   1.372       .  S
C159        C160   1.409       .  A
C159        H164   1.083       .  S
C160        C161   1.414       .  A
C161        C162   1.397       .  A
C161        O165   1.371       .  S
C162        H166   1.084       .  S
O163        H168   0.992       .  S
O165        H169   0.992       .  S
C171        C172   1.402       .  A
C171        C176   1.397       .  A
C171        H181   1.083       .  S
C172        C173   1.410       .  A
C172        C177   1.484       .  S
C173        C174   1.400       .  A
C173        O178   1.372       .  S
C174        C175   1.407       .  A
C174        H179   1.084       .  S
C175        C176   1.413       .  A
C176        O180   1.372       .  S
C177        C182   1.410       .  A
C177        C186   1.406       .  A
O178        H194   0.992       .  S
O180        H191   0.992       .  S
C182        C183   1.396       .  A
C182        O187   1.372       .  S
C183        C184   1.402       .  A
C183        H188   1.084       .  S
C184        C185   1.408       .  A
C185        C186   1.401       .  A
C185        O189   1.372       .  S
C186        H190   1.083       .  S
O187        H192   0.992       .  S
O189        H193   0.992       .  S
C195        C196   1.402       .  A
C195        C200   1.391       .  A
C195        H205   1.084       .  S
C196        C197   1.410       .  A
C196        C201   1.482       .  S
C197        C198   1.405       .  A
C197        O202   1.373       .  S
C198        C199   1.404       .  A
C198        H203   1.083       .  S
C199        C200   1.410       .  A
C200        O204   1.372       .  S
C201        C206   1.408       .  A
C201        C210   1.401       .  A
O202        H218   0.992       .  S
O204        H215   0.992       .  S
C206        C207   1.401       .  A
C206        O211   1.371       .  S
C207        C208   1.408       .  A
C207        H212   1.083       .  S
C208        C209   1.415       .  A
C209        C210   1.395       .  A
C209        O213   1.372       .  S
C210        H214   1.084       .  S
O211        H216   0.992       .  S
O213        H217   0.992       .  S
C219        C220   1.403       .  A
C219        C224   1.398       .  A
C219        H229   1.084       .  S
C220        C221   1.409       .  A
C220        C225   1.484       .  S
C221        C222   1.402       .  A
C221        O226   1.373       .  S
C222        C223   1.407       .  A
C222        H227   1.084       .  S
C223        C224   1.412       .  A
C224        O228   1.371       .  S
C225        C230   1.410       .  A
C225        C234   1.404       .  A
O226        H242   0.992       .  S
O228        H239   0.992       .  S
C230        C231   1.400       .  A
C230        O235   1.371       .  S
C231        C232   1.405       .  A
C231        H236   1.083       .  S
C232        C233   1.410       .  A
C233        C234   1.397       .  A
C233        O237   1.372       .  S
C234        H238   1.084       .  S
O235        H240   0.992       .  S
O237        H241   0.992       .  S
C243        C248   1.402       .  A
C243        C702   1.402   1_554  A
C243        H253   1.084       .  S
C244        C245   1.406       .  A
C244        C701   1.402       .  A
C244        C249   1.480       .  S
C245        C246   1.399       .  A
C245        O250   1.372       .  S
C246        C705   1.406       .  A
C246        H251   1.083       .  S
C247        C248   1.413   1_556  A
C247        C704   1.406       .  A
C248        O252   1.371       .  S
C249        C254   1.407       .  A
C249        C716   1.403       .  A
O250        H266   0.992       .  S
O252        H263   0.992       .  S
C254        C255   1.403       .  A
C254        O259   1.371       .  S
C255        C714   1.405       .  A
C255        H260   1.084       .  S
C256        C257   1.408       .  A
C256        C713   1.405   1_554  A
C257        C258   1.399       .  A
C257        O261   1.372       .  S
C258        C707   1.403   1_554  A
C258        H262   1.084       .  S
O259        H264   0.992       .  S
O261        H265   0.992       .  S
C267        C268   1.403       .  A
C267        C272   1.400       .  A
C267        H277   1.083       .  S
C268        C269   1.410       .  A
C268        C273   1.491       .  S
C269        C270   1.402       .  A
C269        O274   1.372       .  S
C270        C271   1.408       .  A
C270        H275   1.083       .  S
C271        C272   1.416       .  A
C272        O276   1.372       .  S
C273        C278   1.412       .  A
C273        C282   1.407       .  A
O274        H290   0.992       .  S
O276        H287   0.992       .  S
C278        C279   1.399       .  A
C278        O283   1.372       .  S
C279        C280   1.403       .  A
C279        H284   1.084       .  S
C280        C281   1.408       .  A
C281        C282   1.403       .  A
C281        O285   1.371       .  S
C282        H286   1.083       .  S
O283        H288   0.992       .  S
O285        H289   0.992       .  S
C291        C292   1.405       .  A
C291        C296   1.401       .  A
C291        H301   1.083       .  S
C292        C293   1.409       .  A
C292        C297   1.486       .  S
C293        C294   1.398       .  A
C293        O298   1.372       .  S
C294        C295   1.405       .  A
C294        H299   1.084       .  S
C295        C296   1.411       .  A
C296        O300   1.372       .  S
C297        C302   1.409       .  A
C297        C306   1.402       .  A
O298        H314   0.992       .  S
O300        H311   0.992       .  S
C302        C303   1.401       .  A
C302        O307   1.372       .  S
C303        C304   1.408       .  A
C303        H308   1.083       .  S
C304        C305   1.416       .  A
C305        C306   1.401       .  A
C305        O309   1.371       .  S
C306        H310   1.084       .  S
O307        H312   0.992       .  S
O309        H313   0.992       .  S
C315        C320   1.403       .  A
C315        C774   1.403       .  A
C315        H325   1.084       .  S
C316        C317   1.406       .  A
C316        C773   1.403   1_554  A
C316        C321   1.479   1_554  S
C317        C318   1.398       .  A
C317        O322   1.372       .  S
C318        C777   1.405   1_565  A
C318        H323   1.083   1_565  S
C319        C320   1.412   1_545  A
C319        C776   1.405   1_545  A
C320        O324   1.371   1_565  S
C321        C326   1.408   1_556  A
C321        C788   1.402       .  A
O322        H338   0.992       .  S
O324        H335   0.992       .  S
C326        C327   1.402       .  A
C326        O331   1.371       .  S
C327        C328   1.404   1_554  A
C327        H332   1.084       .  S
C328        C787   1.408       .  A
C329        C330   1.398       .  A
C329        C786   1.408       .  A
C329        O333   1.372       .  S
C330        C779   1.402       .  A
C330        H334   1.084       .  S
O331        H336   0.992       .  S
O333        H337   0.992       .  S
C339        C340   1.404       .  A
C339        C344   1.400       .  A
C339        H349   1.083       .  S
C340        C341   1.410       .  A
C340        C345   1.484       .  S
C341        C342   1.399       .  A
C341        O346   1.371       .  S
C342        C343   1.402       .  A
C342        H347   1.084       .  S
C343        C344   1.410       .  A
C344        O348   1.372       .  S
C345        C350   1.408       .  A
C345        C354   1.403       .  A
O346        H362   0.992       .  S
O348        H817   0.991       .  S
C350        C351   1.402       .  A
C350        O355   1.372       .  S
C351        C352   1.407       .  A
C351        H356   1.083       .  S
C352        C353   1.412       .  A
C353        C354   1.398       .  A
C353        O357   1.372       .  S
C354        H358   1.084       .  S
O355        H360   0.992       .  S
O357        H361   0.992       .  S
H359        O806   0.991       .  S
C363        C364   1.404       .  A
C363        C368   1.397       .  A
C363        H373   1.083       .  S
C364        C365   1.410       .  A
C364        C369   1.482       .  S
C365        C366   1.402       .  A
C365        O370   1.371       .  S
C366        C367   1.402       .  A
C366        H371   1.083       .  S
C367        C368   1.406       .  A
C368        O372   1.372       .  S
C369        C374   1.406       .  A
C369        C378   1.403       .  A
O370        H386   0.992       .  S
O372        H383   0.992       .  S
C374        C375   1.399       .  A
C374        O379   1.373       .  S
C375        C376   1.407       .  A
C375        H380   1.083       .  S
C376        C377   1.414       .  A
C377        C378   1.402       .  A
C377        O381   1.372       .  S
C378        H382   1.084       .  S
O379        H384   0.992       .  S
O381        H385   0.992       .  S
C387        C388   1.402       .  A
C387        C392   1.398       .  A
C387        H397   1.084       .  S
C388        C847   1.406       .  A
C388        C393   1.476       .  S
C389        C390   1.401       .  A
C389        C846   1.406   1_554  A
C389        O394   1.371       .  S
C390        C849   1.403   1_554  A
C390        H395   1.083       .  S
C391        C392   1.410       .  A
C391        C848   1.403       .  A
C392        O396   1.372       .  S
C393        C398   1.407       .  A
C393        C860   1.400   1_655  A
O394        H410   0.992       .  S
O396        H407   0.992       .  S
C398        C399   1.402   1_655  A
C398        O403   1.371       .  S
C399        C400   1.406       .  A
C399        H404   1.084       .  S
C400        C859   1.410       .  A
C401        C402   1.396       .  A
C401        C858   1.410       .  A
C401        O405   1.372       .  S
C402        C851   1.400   1_454  A
C402        H406   1.084   1_455  S
O403        H408   0.992       .  S
O405        H409   0.992       .  S
C411        C412   1.403       .  A
C411        C416   1.400       .  A
C411        H421   1.084       .  S
C412        C413   1.405       .  A
C412        C417   1.478       .  S
C413        C414   1.398       .  A
C413        O418   1.372       .  S
C414        C415   1.408       .  A
C414        H419   1.083       .  S
C415        C416   1.413       .  A
C416        O420   1.371       .  S
C417        C422   1.409       .  A
C417        C426   1.401       .  A
O418        H434   0.992       .  S
O420        H431   0.992       .  S
C422        C423   1.400       .  A
C422        O427   1.371       .  S
C423        C424   1.405       .  A
C423        H428   1.084       .  S
C424        C425   1.410       .  A
C425        C426   1.395       .  A
C425        O429   1.372       .  S
C426        H430   1.084       .  S
O427        H432   0.992       .  S
O429        H433   0.992       .  S
C435        C436   1.403       .  A
C435        C440   1.396       .  A
C435        H445   1.083       .  S
C436        C437   1.411       .  A
C436        C441   1.484       .  S
C437        C438   1.403       .  A
C437        O442   1.371       .  S
C438        C439   1.402       .  A
C438        H443   1.083       .  S
C439        C440   1.407       .  A
C440        O444   1.372       .  S
C441        C446   1.407       .  A
C441        C450   1.404       .  A
O442        H458   0.992       .  S
O444        H455   0.992       .  S
C446        C447   1.399       .  A
C446        O451   1.373       .  S
C447        C448   1.406       .  A
C447        H452   1.084       .  S
C448        C449   1.412       .  A
C449        C450   1.401       .  A
C449        O453   1.372       .  S
C450        H454   1.083       .  S
O451        H456   0.992       .  S
O453        H457   0.992       .  S
C459        C464   1.404       .  A
C459        C849   1.479       .  S
C460        C461   1.403       .  A
C460        H465   1.084       .  S
C461        C462   1.399       .  A
C461        C897   1.475       .  S
C462        H466   1.084       .  S
C463        C464   1.401       .  A
C463        C882   1.479       .  S
C464        H467   1.084       .  S
C468        C473   1.408   1_554  A
C468        C777   1.486       .  S
C469        C470   1.401       .  A
C469        H474   1.084       .  S
C470        C825   1.473       .  S
C471        C472   1.400   1_554  A
C471        H475   1.084       .  S
C472        C473   1.405       .  A
C472        C801   1.479       .  S
C473        H476   1.084       .  S
C477        C482   1.408       .  A
C477        C714   1.482       .  S
C478        C479   1.404       .  A
C478        H483   1.084       .  S
C479        C753   1.486       .  S
C480        C481   1.401       .  A
C480        H484   1.084       .  S
C481        C482   1.405       .  A
C481        C738   1.483       .  S
C482        H485   1.084       .  S
Fe486       O502   2.062       .  S
Fe486       O492   2.062       .  S
Fe486       O499   2.059       .  S
Fe486       O491   2.059       .  S
Fe486       O497   1.973       .  S
Fe487       O490   2.066       .  S
Fe487       O494   2.066       .  S
Fe487       O498   2.072       .  S
Fe487       O503   2.067       .  S
Fe487       O497   1.976       .  S
Fe488       O506   2.072       .  S
Fe488       O493   2.068       .  S
Fe488       O500   2.066       .  S
Fe488       O489   2.067       .  S
Fe488       O497   1.976       .  S
O489        C496   1.270       .  A
O490        C504   1.269       .  A
O491        C496   1.269       .  A
O492        C495   1.268       .  A
O493        C505   1.269       .  A
O494        C507   1.269       .  A
C495        C906   1.483       .  S
C495        O500   1.270       .  A
C496        C873   1.484       .  S
O498        C501   1.270       .  A
O499        C501   1.268       .  A
C501        C810   1.483       .  S
O502        C507   1.269       .  A
O503        C505   1.270       .  A
C504        C729   1.494       .  S
C504        O506   1.271       .  A
C505        C762   1.492       .  S
C507        C834   1.486       .  S
C508        C509   1.407   1_554  A
C508        C858   1.481       .  S
C509        C510   1.404       .  A
C509        H514   1.084       .  S
C510        C511   1.399       .  A
C510        C690   1.483       .  S
C511        H515   1.084       .  S
C512        C513   1.401       .  A
C512        C657   1.481       .  S
C513        H516   1.084       .  S
C517        C518   1.406       .  A
C517        C786   1.478       .  S
C518        C519   1.403       .  A
C518        H523   1.084       .  S
C519        C520   1.399       .  A
C519        C642   1.477       .  S
C520        H524   1.084       .  S
C521        C522   1.403       .  A
C521        C609   1.482       .  S
C522        H525   1.083       .  S
C526        C527   1.410       .  A
C526        C705   1.489       .  S
C527        C528   1.402       .  A
C527        H532   1.083       .  S
C528        C529   1.398       .  A
C528        C594   1.479       .  S
C529        H533   1.085       .  S
C530        C531   1.406       .  A
C530        C561   1.485       .  S
C531        H534   1.083       .  S
Fe535       O551   2.059       .  S
Fe535       O541   2.065       .  S
Fe535       O548   2.063       .  S
Fe535       O540   2.060       .  S
Fe535       O546   1.979       .  S
Fe536       O539   2.070       .  S
Fe536       O543   2.066       .  S
Fe536       O547   2.067       .  S
Fe536       O552   2.066       .  S
Fe536       O546   1.979       .  S
Fe537       O555   2.053       .  S
Fe537       O542   2.059       .  S
Fe537       O549   2.060       .  S
Fe537       O538   2.054       .  S
Fe537       O546   1.978       .  S
O538        C545   1.266       .  A
O539        C553   1.271       .  A
O540        C545   1.267       .  A
O541        C544   1.269       .  A
O542        C554   1.267       .  A
O543        C556   1.268       .  A
C544        C633   1.484       .  S
C544        O549   1.268       .  A
C545        C618   1.485       .  S
O547        C550   1.271       .  A
O548        C550   1.270       .  A
C550        C570   1.489       .  S
O551        C556   1.267       .  A
O552        C554   1.269       .  A
C553        C666   1.487       .  S
C553        O555   1.267       .  A
C554        C681   1.485       .  S
C556        C585   1.488       .  S
C557        C558   1.407       .  A
C557        C562   1.406       .  A
C557        H567   1.083       .  S
C558        C559   1.408       .  A
C558        C563   1.486       .  S
C559        C560   1.393       .  A
C559        O564   1.372       .  S
C560        C561   1.404       .  A
C560        H565   1.084       .  S
C561        C562   1.409       .  A
C562        O566   1.372       .  S
C563        C568   1.407       .  A
C563        C572   1.404       .  A
O564        H580   0.992       .  S
O566        H577   0.992       .  S
C568        C569   1.402       .  A
C568        O573   1.372       .  S
C569        C570   1.409       .  A
C569        H574   1.083       .  S
C570        C571   1.413       .  A
C571        C572   1.398       .  A
C571        O575   1.372       .  S
C572        H576   1.084       .  S
O573        H578   0.992       .  S
O575        H579   0.992       .  S
C581        C582   1.402       .  A
C581        C586   1.401       .  A
C581        H591   1.084       .  S
C582        C583   1.407       .  A
C582        C587   1.482       .  S
C583        C584   1.400       .  A
C583        O588   1.372       .  S
C584        C585   1.408       .  A
C584        H589   1.083       .  S
C585        C586   1.414       .  A
C586        O590   1.372       .  S
C587        C592   1.411       .  A
C587        C596   1.401       .  A
O588        H604   0.992       .  S
O590        H601   0.992       .  S
C592        C593   1.403       .  A
C592        O597   1.371       .  S
C593        C594   1.403       .  A
C593        H598   1.083       .  S
C594        C595   1.410       .  A
C595        C596   1.396       .  A
C595        O599   1.372       .  S
C596        H600   1.084       .  S
O597        H602   0.992       .  S
O599        H603   0.992       .  S
C605        C606   1.404       .  A
C605        C610   1.401       .  A
C605        H615   1.083       .  S
C606        C607   1.406       .  A
C606        C611   1.477       .  S
C607        C608   1.394       .  A
C607        O612   1.372       .  S
C608        C609   1.405       .  A
C608        H613   1.084       .  S
C609        C610   1.410       .  A
C610        O614   1.371       .  S
C611        C616   1.405       .  A
C611        C620   1.401       .  A
O612        H628   0.992       .  S
O614        H625   0.992       .  S
C616        C617   1.398       .  A
C616        O621   1.372       .  S
C617        C618   1.409       .  A
C617        H622   1.083       .  S
C618        C619   1.414       .  A
C619        C620   1.397       .  A
C619        O623   1.371       .  S
C620        H624   1.084       .  S
O621        H626   0.992       .  S
O623        H627   0.992       .  S
C629        C630   1.402       .  A
C629        C634   1.397       .  A
C629        H639   1.083       .  S
C630        C631   1.410       .  A
C630        C635   1.485       .  S
C631        C632   1.400       .  A
C631        O636   1.372       .  S
C632        C633   1.407       .  A
C632        H637   1.084       .  S
C633        C634   1.413       .  A
C634        O638   1.372       .  S
C635        C640   1.410       .  A
C635        C644   1.406       .  A
O636        H652   0.992       .  S
O638        H649   0.992       .  S
C640        C641   1.396       .  A
C640        O645   1.372       .  S
C641        C642   1.402       .  A
C641        H646   1.084       .  S
C642        C643   1.408       .  A
C643        C644   1.401       .  A
C643        O647   1.372       .  S
C644        H648   1.083       .  S
O645        H650   0.992       .  S
O647        H651   0.992       .  S
C653        C654   1.402       .  A
C653        C658   1.391       .  A
C653        H663   1.084       .  S
C654        C655   1.410       .  A
C654        C659   1.482       .  S
C655        C656   1.405       .  A
C655        O660   1.373       .  S
C656        C657   1.404       .  A
C656        H661   1.083       .  S
C657        C658   1.410       .  A
C658        O662   1.372       .  S
C659        C664   1.408       .  A
C659        C668   1.402       .  A
O660        H676   0.992       .  S
O662        H673   0.992       .  S
C664        C665   1.401       .  A
C664        O669   1.371       .  S
C665        C666   1.408       .  A
C665        H670   1.083       .  S
C666        C667   1.415       .  A
C667        C668   1.395       .  A
C667        O671   1.372       .  S
C668        H672   1.084       .  S
O669        H674   0.992       .  S
O671        H675   0.992       .  S
C677        C678   1.403       .  A
C677        C682   1.398       .  A
C677        H687   1.084       .  S
C678        C679   1.409       .  A
C678        C683   1.484       .  S
C679        C680   1.402       .  A
C679        O684   1.373       .  S
C680        C681   1.407       .  A
C680        H685   1.084       .  S
C681        C682   1.412       .  A
C682        O686   1.371       .  S
C683        C688   1.410       .  A
C683        C692   1.404       .  A
O684        H700   0.992       .  S
O686        H697   0.992       .  S
C688        C689   1.400       .  A
C688        O693   1.371       .  S
C689        C690   1.405       .  A
C689        H694   1.083       .  S
C690        C691   1.410       .  A
C691        C692   1.397       .  A
C691        O695   1.372       .  S
C692        H696   1.084       .  S
O693        H698   0.992       .  S
O695        H699   0.992       .  S
C701        C706   1.403       .  A
C701        H711   1.084       .  S
C702        C703   1.406       .  A
C702        C707   1.480       .  S
C703        C704   1.399       .  A
C703        O708   1.372       .  S
C704        H709   1.083       .  S
C705        C706   1.413       .  A
C706        O710   1.371       .  S
C707        C712   1.407       .  A
O708        H724   0.992       .  S
O710        H721   0.992       .  S
C712        C713   1.403       .  A
C712        O717   1.371       .  S
C713        H718   1.084       .  S
C714        C715   1.409       .  A
C715        C716   1.400       .  A
C715        O719   1.372       .  S
C716        H720   1.084       .  S
O717        H722   0.992       .  S
O719        H723   0.992       .  S
C725        C726   1.402       .  A
C725        C730   1.400       .  A
C725        H735   1.083       .  S
C726        C727   1.410       .  A
C726        C731   1.490       .  S
C727        C728   1.402       .  A
C727        O732   1.372       .  S
C728        C729   1.408       .  A
C728        H733   1.083       .  S
C729        C730   1.416       .  A
C730        O734   1.372       .  S
C731        C736   1.411       .  A
C731        C740   1.407       .  A
O732        H748   0.992       .  S
O734        H745   0.992       .  S
C736        C737   1.399       .  A
C736        O741   1.372       .  S
C737        C738   1.404       .  A
C737        H742   1.084       .  S
C738        C739   1.408       .  A
C739        C740   1.403       .  A
C739        O743   1.371       .  S
C740        H744   1.083       .  S
O741        H746   0.992       .  S
O743        H747   0.992       .  S
C749        C750   1.405       .  A
C749        C754   1.401       .  A
C749        H759   1.083       .  S
C750        C751   1.409       .  A
C750        C755   1.487       .  S
C751        C752   1.398       .  A
C751        O756   1.372       .  S
C752        C753   1.405       .  A
C752        H757   1.084       .  S
C753        C754   1.411       .  A
C754        O758   1.372       .  S
C755        C760   1.409       .  A
C755        C764   1.402       .  A
O756        H772   0.992       .  S
O758        H769   0.992       .  S
C760        C761   1.401       .  A
C760        O765   1.372       .  S
C761        C762   1.407       .  A
C761        H766   1.083       .  S
C762        C763   1.416       .  A
C763        C764   1.401       .  A
C763        O767   1.371       .  S
C764        H768   1.084       .  S
O765        H770   0.992       .  S
O767        H771   0.992       .  S
C773        C778   1.403       .  A
C773        H783   1.084       .  S
C774        C775   1.406       .  A
C774        C779   1.479       .  S
C775        C776   1.398       .  A
C775        O780   1.372       .  S
C776        H781   1.083   1_565  S
C777        C778   1.412   1_544  A
C778        O782   1.371   1_565  S
C779        C784   1.408       .  A
O780        H796   0.992       .  S
O782        H793   0.992       .  S
C784        C785   1.403       .  A
C784        O789   1.371       .  S
C785        C786   1.404       .  A
C785        H790   1.084       .  S
C787        C788   1.398       .  A
C787        O791   1.372       .  S
C788        H792   1.084       .  S
O789        H794   0.992       .  S
O791        H795   0.992       .  S
C797        C798   1.404       .  A
C797        C802   1.400       .  A
C797        H807   1.083       .  S
C798        C799   1.410       .  A
C798        C803   1.484       .  S
C799        C800   1.399       .  A
C799        O804   1.371       .  S
C800        C801   1.402       .  A
C800        H805   1.084       .  S
C801        C802   1.410       .  A
C802        O806   1.372       .  S
C803        C808   1.408       .  A
C803        C812   1.403       .  A
O804        H820   0.992       .  S
C808        C809   1.402       .  A
C808        O813   1.372       .  S
C809        C810   1.407       .  A
C809        H814   1.083       .  S
C810        C811   1.412       .  A
C811        C812   1.398       .  A
C811        O815   1.372       .  S
C812        H816   1.084       .  S
O813        H818   0.992       .  S
O815        H819   0.992       .  S
C821        C822   1.404       .  A
C821        C826   1.397       .  A
C821        H831   1.083       .  S
C822        C823   1.410       .  A
C822        C827   1.482       .  S
C823        C824   1.402       .  A
C823        O828   1.371       .  S
C824        C825   1.402       .  A
C824        H829   1.083       .  S
C825        C826   1.406       .  A
C826        O830   1.372       .  S
C827        C832   1.406       .  A
C827        C836   1.403       .  A
O828        H844   0.992       .  S
O830        H841   0.992       .  S
C832        C833   1.399       .  A
C832        O837   1.373       .  S
C833        C834   1.408       .  A
C833        H838   1.083       .  S
C834        C835   1.413       .  A
C835        C836   1.401       .  A
C835        O839   1.372       .  S
C836        H840   1.084       .  S
O837        H842   0.992       .  S
O839        H843   0.992       .  S
C845        C846   1.402       .  A
C845        C850   1.398       .  A
C845        H855   1.084       .  S
C846        C851   1.476       .  S
C847        C848   1.401       .  A
C847        O852   1.371       .  S
C848        H853   1.083       .  S
C849        C850   1.410       .  A
C850        O854   1.372       .  S
C851        C856   1.407       .  A
O852        H868   0.992       .  S
O854        H865   0.992       .  S
C856        C857   1.402   1_655  A
C856        O861   1.371       .  S
C857        C858   1.406   1_556  A
C857        H862   1.084       .  S
C859        C860   1.396       .  A
C859        O863   1.372       .  S
C860        H864   1.084   1_455  S
O861        H866   0.992       .  S
O863        H867   0.992       .  S
C869        C870   1.403       .  A
C869        C874   1.400       .  A
C869        H879   1.084       .  S
C870        C871   1.405       .  A
C870        C875   1.478       .  S
C871        C872   1.398       .  A
C871        O876   1.372       .  S
C872        C873   1.408       .  A
C872        H877   1.083       .  S
C873        C874   1.413       .  A
C874        O878   1.371       .  S
C875        C880   1.409       .  A
C875        C884   1.401       .  A
O876        H892   0.992       .  S
O878        H889   0.992       .  S
C880        C881   1.400       .  A
C880        O885   1.371       .  S
C881        C882   1.405       .  A
C881        H886   1.084       .  S
C882        C883   1.410       .  A
C883        C884   1.395       .  A
C883        O887   1.372       .  S
C884        H888   1.084       .  S
O885        H890   0.992       .  S
O887        H891   0.992       .  S
C893        C894   1.403       .  A
C893        C898   1.396       .  A
C893        H903   1.083       .  S
C894        C895   1.411       .  A
C894        C899   1.484       .  S
C895        C896   1.403       .  A
C895        O900   1.371       .  S
C896        C897   1.402       .  A
C896        H901   1.083       .  S
C897        C898   1.407       .  A
C898        O902   1.372       .  S
C899        C904   1.407       .  A
C899        C908   1.404       .  A
O900        H916   0.992       .  S
O902        H913   0.992       .  S
C904        C905   1.399       .  A
C904        O909   1.373       .  S
C905        C906   1.406       .  A
C905        H910   1.084       .  S
C906        C907   1.412       .  A
C907        C908   1.401       .  A
C907        O911   1.372       .  S
C908        H912   1.083       .  S
O909        H914   0.992       .  S
O911        H915   0.992       .  S
