geometry optimzed in LAMMPS
_audit_creation_date              2020-11-30 
_audit_creation_method            'lammps2cif' 
_symmetry_space_group_name_H-M    'P1' 
_symmetry_Int_Tables_number       1 
_symmetry_cell_setting            triclinic 
loop_ 
_symmetry_equiv_pos_as_xyz 
  x,y,z 
_cell_length_a                    31.532755859393312 
_cell_length_b                    31.175267445269114 
_cell_length_c                    30.835095583218905 
_cell_angle_alpha                 90.05997184219322 
_cell_angle_beta                  89.83887264734685 
_cell_angle_gamma                 126.01507328909378 
loop_ 
_atom_site_label 
_atom_site_type_symbol 
_atom_site_fract_x 
_atom_site_fract_y 
_atom_site_fract_z 
_atom_site_charge 
C1          C  0.81571409  0.40074158  0.46105930     0.03540
C2          C  0.78924335  0.38849319  0.50076534    -0.12610
C3          C  0.81457757  0.39337389  0.03946217     0.01040
C4          C  0.86613537  0.40873747  0.03851467    -0.11140
C5          C  0.89496470  0.42393718  0.99929097     0.03530
C6          C  0.86867179  0.41971745  0.46057800    -0.10560
H7          H  0.74845577  0.37399624  0.00156064     0.09120
H8          H  0.88280406  0.40849432  0.06893572     0.06650
H9          H  0.88863841  0.43144515  0.42967355     0.06500
C10         C  0.44157599  0.04487611  0.46141714     0.03540
C11         C  0.44693760  0.06989428  0.50069246    -0.12610
C12         C  0.43480597  0.04229749  0.03970709     0.01040
C13         C  0.41575496  0.98884053  0.03939906    -0.11140
C14         C  0.41125601  0.96256339  0.50024016     0.03530
C15         C  0.42476539  0.99203580  0.46122565    -0.10560
H16         H  0.46331867  0.11173920  0.50105260     0.09120
H17         H  0.40639652  0.96954883  0.07049126     0.06650
H18         H  0.42493538  0.97588298  0.43036202     0.06500
C19         C  0.48773993  0.39603610  0.46378831     0.03540
C20         C  0.50824189  0.39425918  0.50331560    -0.12610
C21         C  0.49686794  0.40952673  0.04152211     0.01040
C22         C  0.46824511  0.43080408  0.04006628    -0.11140
C23         C  0.44848693  0.43520304  0.00036692     0.03530
C24         C  0.45784753  0.41605435  0.46251210    -0.10560
H25         H  0.53099545  0.37844938  0.50473784     0.09120
H26         H  0.46176383  0.44294717  0.07056236     0.06650
H27         H  0.44065428  0.41433887  0.43179500     0.06500
O28         O  0.55331712  0.18455901  0.21287894    -0.84940
O29         O  0.64715615  0.27855370  0.19401332    -0.81990
C30         C  0.68204231  0.32755037  0.19040557     0.98520
O31         O  0.68260683  0.35969386  0.21607736    -0.82020
O32         O  0.59506634  0.35458049  0.19497214    -0.84670
C33         C  0.54754233  0.33640418  0.19058706     1.03050
O34         O  0.51344001  0.30109979  0.21644935    -0.77430
O35         O  0.50583193  0.21181103  0.19363449    -0.77620
C36         C  0.52035081  0.18230596  0.18753519     1.03000
O37         O  0.57673130  0.21081817  0.30437010    -0.84940
O38         O  0.67416604  0.29949127  0.28436519    -0.82000
C39         C  0.68003410  0.33349042  0.31110654     0.98540
O40         O  0.65416278  0.35216816  0.30633509    -0.82030
O41         O  0.57333464  0.35776660  0.28510336    -0.84640
C42         C  0.53855722  0.32506739  0.31182144     1.03010
O43         O  0.51563743  0.27609088  0.30645611    -0.77460
O44         O  0.49822051  0.18214343  0.28333457    -0.77600
C45         C  0.52788674  0.18002073  0.30950500     1.02970
Cr46       Cr  0.61059409  0.24573252  0.24894278     1.93740
Cr47       Cr  0.62325784  0.35078013  0.25047441     1.93210
Cr48       Cr  0.51344816  0.24551731  0.24991866     1.39100
O49         O  0.58244998  0.28064092  0.24936712    -1.22690
C50         C  0.03414290  0.48131155  0.03803988     0.03540
C51         C  0.98164555  0.46292573  0.03780921    -0.12610
C52         C  0.95195566  0.44477110  0.99909590     0.01040
C53         C  0.97790178  0.44780195  0.46034017    -0.11140
C54         C  0.03212317  0.47156861  0.45980264     0.03530
C55         C  0.05948163  0.48702888  0.99912280    -0.10560
H56         H  0.96499685  0.46313280  0.06834132     0.09120
H57         H  0.95688831  0.43247892  0.43015245     0.06650
H58         H  0.10104628  0.50451718  0.99963830     0.06500
C59         C  0.37743884  0.82864900  0.03982708     0.03540
C60         C  0.39242121  0.88081421  0.03956147    -0.12610
C61         C  0.39593669  0.90647710  0.00037507     0.01040
C62         C  0.38483603  0.87756772  0.46137182    -0.11140
C63         C  0.37369424  0.82683886  0.46145289     0.03530
C64         C  0.36980620  0.80252581  0.00069327    -0.10560
H65         H  0.40057964  0.89989446  0.07063593     0.09120
H66         H  0.38431767  0.89327183  0.43041382     0.06650
H67         H  0.35867255  0.76232936  0.00081288     0.06500
C68         C  0.36404091  0.48184909  0.03490654     0.03540
C69         C  0.39756855  0.46603371  0.03672390    -0.12610
C70         C  0.41597613  0.45646226  0.99848597     0.01040
C71         C  0.40359477  0.46858821  0.45825329    -0.11140
C72         C  0.37036091  0.48450222  0.45628620     0.03530
C73         C  0.34832937  0.48767132  0.99430123    -0.10560
H74         H  0.40929627  0.46231492  0.06833610     0.09120
H75         H  0.42095523  0.46815671  0.42821330     0.06650
H76         H  0.32145869  0.49854063  0.99209998     0.06500
O77         O  0.28996278  0.69199856  0.21842149    -0.84940
O78         O  0.20057305  0.59679251  0.19348811    -0.81990
C79         C  0.16749414  0.54773921  0.18788966     0.98520
O80         O  0.16743638  0.51500019  0.21239241    -0.82020
O81         O  0.25739320  0.52621606  0.18993847    -0.84670
C82         C  0.30565493  0.54873900  0.18455359     1.03050
O83         O  0.33895615  0.58314222  0.21124424    -0.77430
O84         O  0.33965432  0.66947299  0.19480641    -0.77620
C85         C  0.32393916  0.69819873  0.19186601     1.03000
O86         O  0.26348696  0.65692740  0.30701951    -0.84940
O87         O  0.16973782  0.56720743  0.28286604    -0.82000
C88         C  0.16657077  0.53391650  0.30883125     0.98540
O89         O  0.19400762  0.51729758  0.30240380    -0.82030
O90         O  0.27892482  0.51876672  0.27928297    -0.84640
C91         C  0.31315839  0.55112700  0.30641945     1.03010
O92         O  0.33373505  0.59988174  0.30290603    -0.77460
O93         O  0.34419004  0.69183998  0.28657062    -0.77600
C94         C  0.31193111  0.69084134  0.31209725     1.02970
Cr95       Cr  0.23326474  0.62588876  0.25022351     1.93740
Cr96       Cr  0.22720781  0.52445187  0.24616516     1.93210
Cr97       Cr  0.33413601  0.63318486  0.24888405     1.39100
O98         O  0.26494936  0.59449908  0.24829357    -1.22690
C99         C  0.33591741  0.46810007  0.38075633    -0.11860
C100        C  0.36206831  0.50339669  0.41539457     0.05140
C101        C  0.37492859  0.55507392  0.41276121    -0.07150
C102        C  0.35821909  0.56886566  0.37691291    -0.07890
C103        C  0.32992970  0.53304005  0.34283574    -0.02450
C104        C  0.31955868  0.48227166  0.34461145     0.04370
N105        N  0.29248430  0.44457844  0.31036847     0.66880
H106        H  0.32613929  0.42850240  0.38265169     0.15780
H107        H  0.36758920  0.60831627  0.37579648     0.15490
N108        N  0.40492521  0.59395812  0.44613012     0.74620
O109        O  0.31522776  0.42840226  0.28980268    -0.38870
O110        O  0.24350901  0.41987714  0.30671221    -0.38810
O111        O  0.44214490  0.59675922  0.46465758    -0.39520
O112        O  0.39766654  0.62891249  0.95424171    -0.39580
C113        C  0.32379732  0.48952481  0.15051100    -0.11860
C114        C  0.32274201  0.53368744  0.14691078     0.05140
C115        C  0.33440291  0.56021717  0.10676863    -0.07150
C116        C  0.35003462  0.54351891  0.07199082    -0.07890
C117        C  0.34933217  0.49797487  0.07460260    -0.02450
C118        C  0.33527256  0.47018946  0.11456538     0.04370
N119        N  0.32962095  0.42115479  0.11886436     0.66880
H120        H  0.31298343  0.46836252  0.18108881     0.15780
H121        H  0.36153917  0.56569464  0.04196386     0.15490
N122        N  0.32878500  0.60247291  0.10000702     0.74580
O123        O  0.34157281  0.41005516  0.15403832    -0.38870
O124        O  0.30642273  0.38599556  0.08988265    -0.38810
O125        O  0.29357696  0.60237138  0.11968147    -0.39520
O126        O  0.35269477  0.63474741  0.06910131    -0.39580
C127        C  0.37832677  0.74981912  0.36806872    -0.11860
C128        C  0.33036119  0.73002664  0.34764829     0.05140
C129        C  0.29894955  0.74553893  0.36327315    -0.07150
C130        C  0.31510219  0.77851639  0.39958225    -0.07890
C131        C  0.36221763  0.79712385  0.42060540    -0.02450
C132        C  0.39483209  0.78331651  0.40448144     0.04370
N133        N  0.44424566  0.80251507  0.42459286     0.66880
H134        H  0.40258380  0.73826891  0.35605857     0.15780
H135        H  0.29027640  0.78925910  0.41190728     0.15490
N136        N  0.25075351  0.72859110  0.34252307     0.74580
O137        O  0.46345553  0.77677766  0.42091384    -0.38870
O138        O  0.47106210  0.84726074  0.44292031    -0.38810
O139        O  0.20989875  0.71033282  0.36491376    -0.39520
O140        O  0.25029253  0.73725000  0.30259891    -0.39580
C141        C  0.39636252  0.78109301  0.09146449    -0.11860
C142        C  0.36673769  0.79985708  0.08113314     0.05140
C143        C  0.32695012  0.79013623  0.10988969    -0.07150
C144        C  0.31604835  0.75940993  0.14709235    -0.07890
C145        C  0.34380446  0.73811600  0.15649683    -0.02450
C146        C  0.38655023  0.75170858  0.12939356     0.04370
N147        N  0.42142412  0.73790758  0.14042423     0.66880
H148        H  0.42815047  0.79043145  0.07014992     0.15780
H149        H  0.28363534  0.74986914  0.16764151     0.15490
N150        N  0.29557993  0.80880360  0.10101785     0.74580
O151        O  0.44174860  0.72734850  0.11086088    -0.38870
O152        O  0.43979228  0.74636306  0.17832064    -0.38810
O153        O  0.27863760  0.80577071  0.06326032    -0.39520
O154        O  0.27973294  0.82272985  0.13186351    -0.39580
C155        C  0.07916835  0.54144268  0.10043655    -0.11860
C156        C  0.06316385  0.49452795  0.07913484     0.05140
C157        C  0.07817015  0.46289912  0.09550467    -0.07150
C158        C  0.11101871  0.48060228  0.13192879    -0.07890
C159        C  0.12860100  0.52852306  0.15255658    -0.02450
C160        C  0.11117307  0.55859519  0.13728886     0.04370
N161        N  0.12457833  0.60581639  0.15912366     0.66880
H162        H  0.06680805  0.56500622  0.08806825     0.15780
H163        H  0.12374916  0.45720822  0.14385909     0.15490
N164        N  0.06081263  0.41321397  0.07557002     0.74580
O165        O  0.13357502  0.64474130  0.13747799    -0.38870
O166        O  0.12013451  0.60593760  0.19982581    -0.38810
O167        O  0.01634143  0.38443598  0.05783481    -0.39520
O168        O  0.08771518  0.39542368  0.07930765    -0.39580
C169        C  0.08977943  0.52102587  0.34644338    -0.11860
C170        C  0.12989780  0.51396600  0.34633406     0.05140
C171        C  0.13467431  0.48906623  0.38247276    -0.07150
C172        C  0.09947365  0.47192931  0.41718174    -0.07890
C173        C  0.06161181  0.48213373  0.41859642    -0.02450
C174        C  0.05647751  0.50666026  0.38235465     0.04370
N175        N  0.02028695  0.52043277  0.38227343     0.66880
H176        H  0.08569001  0.54014793  0.31911623     0.15780
H177        H  0.10378000  0.45305632  0.44459042     0.15490
N178        N  0.17718558  0.48443006  0.38629286     0.74580
O179        O  0.01977659  0.54648308  0.41338343    -0.38870
O180        O  0.99481011  0.51394370  0.34834246    -0.38810
O181        O  0.22384638  0.52570405  0.38567846    -0.39520
O182        O  0.16828918  0.44139017  0.39913242    -0.39580
C183        C  0.57230801  0.40539052  0.13484513    -0.11860
C184        C  0.53255539  0.35783659  0.15550465     0.05140
C185        C  0.48039720  0.33092452  0.14052546    -0.07150
C186        C  0.46981313  0.35057830  0.10458242    -0.07890
C187        C  0.50979316  0.39693809  0.08333990    -0.02450
C188        C  0.56166992  0.42557297  0.09906401     0.04370
N189        N  0.60375389  0.47443711  0.07906943     0.66880
H190        H  0.61221388  0.42699881  0.14656911     0.15780
H191        H  0.43010589  0.32844248  0.09218502     0.15490
N192        N  0.43804346  0.28231926  0.15979351     0.74580
O193        O  0.65077519  0.49085543  0.08427358    -0.38870
O194        O  0.59472988  0.50375704  0.05935380    -0.38810
O195        O  0.42084540  0.28317651  0.19655250    -0.39520
O196        O  0.41124411  0.24111538  0.13676199    -0.39580
C197        C  0.51654856  0.40767839  0.38677684    -0.11860
C198        C  0.49651490  0.37546807  0.42392637     0.05140
C199        C  0.48800966  0.32552324  0.42318733    -0.07150
C200        C  0.50265953  0.31069671  0.38634266    -0.07890
C201        C  0.52424349  0.34359643  0.34962411    -0.02450
C202        C  0.53040982  0.39230409  0.34978683     0.04370
N203        N  0.54929101  0.42598868  0.31244083     0.66880
H204        H  0.52277903  0.44577873  0.38685697     0.15780
H205        H  0.49661422  0.27269071  0.38626021     0.15490
N206        N  0.46333894  0.28886749  0.45885750     0.74580
O207        O  0.51902822  0.43308934  0.29242048    -0.38870
O208        O  0.59788125  0.45613299  0.30471730    -0.38810
O209        O  0.42500011  0.28286137  0.97853486    -0.39520
O210        O  0.47600884  0.25825687  0.46772371    -0.39580
C211        C  0.51506364  0.10692348  0.41347764    -0.11860
C212        C  0.46109395  0.07670890  0.42121953     0.05140
C213        C  0.42796527  0.07754543  0.39085917    -0.07150
C214        C  0.45078018  0.11046975  0.35403167    -0.07890
C215        C  0.50530111  0.14185723  0.34657922    -0.02450
C216        C  0.53739759  0.13847380  0.37640751     0.04370
N217        N  0.59250543  0.16556815  0.36933012     0.66880
H218        H  0.54012588  0.10516684  0.43628815     0.15780
H219        H  0.42575915  0.11251644  0.33147889     0.15490
N220        N  0.37181892  0.04618803  0.39673608     0.74580
O221        O  0.62443939  0.19312683  0.39932881    -0.38870
O222        O  0.60803925  0.15331007  0.33704688    -0.38810
O223        O  0.35134394  0.03080217  0.43390567    -0.39520
O224        O  0.34233275  0.03587630  0.36472803    -0.39580
C225        C  0.50367838  0.09476411  0.09350258    -0.11860
C226        C  0.45204317  0.07232702  0.08076270     0.05140
C227        C  0.42144420  0.08411866  0.10425167    -0.07150
C228        C  0.44477771  0.12003800  0.13921716    -0.07890
C229        C  0.49723315  0.14378963  0.15116329    -0.02450
C230        C  0.52672796  0.13073015  0.12784704     0.04370
N231        N  0.58165858  0.15809969  0.13519179     0.66880
H232        H  0.52742379  0.08673345  0.07471661     0.15780
H233        H  0.42183950  0.12945650  0.15747990     0.15490
N234        N  0.36749788  0.06067424  0.09320501     0.74580
O235        O  0.60072365  0.13220707  0.13824561    -0.38870
O236        O  0.61189509  0.20727657  0.12795767    -0.38810
O237        O  0.34063380  0.01763235  0.07241434    -0.39520
O238        O  0.34508935  0.08073756  0.10722412    -0.39580
C239        C  0.78562440  0.35633580  0.38937518    -0.11860
C240        C  0.78658864  0.39022809  0.41998880     0.05140
C241        C  0.75506482  0.40815150  0.41320245    -0.07150
C242        C  0.72083532  0.38872755  0.37760628    -0.07890
C243        C  0.71791084  0.35276748  0.34779864    -0.02450
C244        C  0.75177551  0.33735140  0.35362919     0.04370
N245        N  0.75190182  0.30174313  0.32436333     0.66880
H246        H  0.80957823  0.34230418  0.39441081     0.15780
H247        H  0.69648223  0.40233553  0.37307576     0.15490
N248        N  0.75796643  0.44656891  0.44154398     0.74580
O249        O  0.79405787  0.31603445  0.30580109    -0.38870
O250        O  0.71378744  0.25327583  0.32443165    -0.38810
O251        O  0.80111364  0.48308359  0.45827602    -0.39520
O252        O  0.71873124  0.44749456  0.44636509    -0.39580
C253        C  0.76821880  0.33267433  0.10108617    -0.11860
C254        C  0.78634625  0.38091808  0.08111317     0.05140
C255        C  0.77566485  0.41501709  0.10027109    -0.07150
C256        C  0.74272010  0.39701645  0.13696302    -0.07890
C257        C  0.72209446  0.34729071  0.15565820    -0.02450
C258        C  0.73745313  0.31596674  0.13880517     0.04370
N259        N  0.72376875  0.26826783  0.16008613     0.66880
H260        H  0.77847191  0.30795067  0.08714021     0.15780
H261        H  0.73218840  0.42157526  0.15069485     0.15490
N262        N  0.79776148  0.46752671  0.08346165     0.74580
O263        O  0.71863928  0.23119567  0.13823659    -0.38870
O264        O  0.72510993  0.26650299  0.20093264    -0.38810
O265        O  0.83760579  0.49072369  0.05909148    -0.39520
O266        O  0.78105479  0.49341070  0.09676795    -0.39580
C267        C  0.81571551  0.40074161  0.96105957     0.03540
C268        C  0.78924479  0.38849305  0.00076562    -0.12610
C269        C  0.81457619  0.39337434  0.53946195     0.01040
C270        C  0.86613400  0.40873796  0.53851452    -0.11140
C271        C  0.89496331  0.42393739  0.49929082     0.03530
C272        C  0.86867319  0.41971743  0.96057820    -0.10560
H273        H  0.74845431  0.37399628  0.50156031     0.09120
H274        H  0.88280267  0.40849496  0.56893562     0.06650
H275        H  0.88863981  0.43144529  0.92967375     0.06500
C276        C  0.44157509  0.04487485  0.96141693     0.03540
C277        C  0.44693659  0.06989302  0.00069223    -0.12610
C278        C  0.43480726  0.04229880  0.53970732     0.01040
C279        C  0.41575649  0.98884191  0.53939927    -0.11140
C280        C  0.41125463  0.96256201  0.00023999     0.03530
C281        C  0.42476432  0.99203447  0.96122548    -0.10560
H282        H  0.46331781  0.11173798  0.00105236     0.09120
H283        H  0.40639833  0.96955028  0.57049147     0.06650
H284        H  0.42493442  0.97588162  0.93036189     0.06500
C285        C  0.48773835  0.39603583  0.96378839     0.03540
C286        C  0.50824048  0.39425910  0.00331565    -0.12610
C287        C  0.49686933  0.40952680  0.54152206     0.01040
C288        C  0.46824660  0.43080427  0.54006620    -0.11140
C289        C  0.44848859  0.43520341  0.50036683     0.03530
C290        C  0.45784584  0.41605396  0.96251219    -0.10560
H291        H  0.53099412  0.37844939  0.00473787     0.09120
H292        H  0.46176525  0.44294729  0.57056229     0.06650
H293        H  0.44065248  0.41433836  0.93179511     0.06500
O294        O  0.55331756  0.18455953  0.71287966    -0.84940
O295        O  0.64715655  0.27855430  0.69401424    -0.81990
C296        C  0.68204259  0.32755099  0.69040648     0.98520
O297        O  0.68260728  0.35969440  0.71607849    -0.82020
O298        O  0.59506702  0.35458124  0.69497332    -0.84670
C299        C  0.54754301  0.33640480  0.69058796     1.03050
O300        O  0.51344056  0.30110037  0.71645014    -0.77430
O301        O  0.50583263  0.21181179  0.69363511    -0.77620
C302        C  0.52035147  0.18230669  0.68753579     1.03000
O303        O  0.57673147  0.21081829  0.80437086    -0.84940
O304        O  0.67416637  0.29949152  0.78436609    -0.82000
C305        C  0.68003454  0.33349065  0.81110752     0.98540
O306        O  0.65416315  0.35216836  0.80633629    -0.82030
O307        O  0.57333499  0.35776691  0.78510454    -0.84640
C308        C  0.53855717  0.32506753  0.81182230     1.03010
O309        O  0.51563745  0.27609106  0.80645685    -0.77460
O310        O  0.49822078  0.18214373  0.78333514    -0.77600
C311        C  0.52788687  0.18002080  0.80950557     1.02970
Cr312      Cr  0.61059444  0.24573291  0.74894363     1.93740
Cr313      Cr  0.62325828  0.35078057  0.75047560     1.93210
Cr314      Cr  0.51344856  0.24551776  0.74991937     1.39100
O315        O  0.58245038  0.28064136  0.74936808    -1.22690
C316        C  0.03414129  0.48131096  0.53803987     0.03540
C317        C  0.98164405  0.46292552  0.53780915    -0.12610
C318        C  0.95195421  0.44477106  0.49909580     0.01040
C319        C  0.97790326  0.44780217  0.96034024    -0.11140
C320        C  0.03212473  0.47156918  0.95980264     0.03530
C321        C  0.05947999  0.48702813  0.49912283    -0.10560
H322        H  0.96499543  0.46313273  0.56834124     0.09120
H323        H  0.95688974  0.43247900  0.93015256     0.06650
H324        H  0.10104459  0.50451619  0.49963838     0.06500
C325        C  0.37744039  0.82865035  0.53982702     0.03540
C326        C  0.39242263  0.88081551  0.53956151    -0.12610
C327        C  0.39593824  0.90647853  0.50037515     0.01040
C328        C  0.38483429  0.87756615  0.96137180    -0.11140
C329        C  0.37369242  0.82683725  0.96145296     0.03530
C330        C  0.36980797  0.80252733  0.50069316    -0.10560
H331        H  0.40058079  0.89989558  0.57063603     0.09120
H332        H  0.38431591  0.89327023  0.93041378     0.06650
H333        H  0.35867434  0.76233088  0.50081270     0.06500
C334        C  0.36404298  0.48184999  0.53490639     0.03540
C335        C  0.39757052  0.46603451  0.53672378    -0.12610
C336        C  0.41597792  0.45646279  0.49848585     0.01040
C337        C  0.40359308  0.46858781  0.95825344    -0.11140
C338        C  0.37035911  0.48450171  0.95628636     0.03530
C339        C  0.34833138  0.48767214  0.49430106    -0.10560
H340        H  0.40929831  0.46231584  0.56833599     0.09120
H341        H  0.42095370  0.46815650  0.92821347     0.06650
H342        H  0.32146080  0.49854156  0.49209979     0.06500
O343        O  0.28996244  0.69199831  0.71842049    -0.84940
O344        O  0.20057294  0.59679207  0.69348695    -0.81990
C345        C  0.16749395  0.54773877  0.68788863     0.98520
O346        O  0.16743643  0.51499984  0.71239131    -0.82020
O347        O  0.25739371  0.52621629  0.68993744    -0.84670
C348        C  0.30565552  0.54873936  0.68455282     1.03050
O349        O  0.33895649  0.58314254  0.71124363    -0.77430
O350        O  0.33965465  0.66947333  0.69480590    -0.77620
C351        C  0.32393929  0.69819889  0.69186536     1.03000
O352        O  0.26348636  0.65692723  0.80701838    -0.84940
O353        O  0.16973760  0.56720696  0.78286493    -0.82000
C354        C  0.16657083  0.53391625  0.80883024     0.98540
O355        O  0.19400762  0.51729728  0.80240267    -0.82030
O356        O  0.27892496  0.51876669  0.77928197    -0.84640
C357        C  0.31315807  0.55112683  0.80641876     1.03010
O358        O  0.33373465  0.59988156  0.80290544    -0.77460
O359        O  0.34418964  0.69183973  0.78657015    -0.77600
C360        C  0.31193047  0.69084090  0.81209660     1.02970
Cr361      Cr  0.23326444  0.62588843  0.75022239     1.93740
Cr362      Cr  0.22720797  0.52445176  0.74616408     1.93210
Cr363      Cr  0.33413596  0.63318489  0.74888347     1.39100
O364        O  0.26494931  0.59449898  0.74829263    -1.22690
C365        C  0.33591677  0.46810000  0.88075608    -0.11860
C366        C  0.36206659  0.50339626  0.91539472     0.05140
C367        C  0.37492615  0.55507322  0.91276157    -0.07150
C368        C  0.35821708  0.56886501  0.87691299    -0.07890
C369        C  0.32992886  0.53303977  0.84283536    -0.02450
C370        C  0.31955846  0.48227164  0.84461093     0.04370
N371        N  0.29248523  0.44457878  0.81036753     0.66880
H372        H  0.32613922  0.42850254  0.88265128     0.15780
H373        H  0.36758666  0.60831541  0.87579669     0.15490
N374        N  0.40492172  0.59395715  0.94613088     0.74620
O375        O  0.31522946  0.42840299  0.78980243    -0.38870
O376        O  0.24351001  0.41987727  0.80671029    -0.38810
O377        O  0.44214162  0.59675891  0.96465862    -0.39520
O378        O  0.39767107  0.62891422  0.45424090    -0.39580
C379        C  0.32379846  0.48952543  0.65051056    -0.11860
C380        C  0.32274303  0.53368798  0.64691019     0.05140
C381        C  0.33440454  0.56021798  0.60676811    -0.07150
C382        C  0.35003670  0.54351990  0.57199051    -0.07890
C383        C  0.34933419  0.49797583  0.57460238    -0.02450
C384        C  0.33527424  0.47019031  0.61456512     0.04370
N385        N  0.32962283  0.42115576  0.61886424     0.66880
H386        H  0.31298426  0.46836302  0.68108833     0.15780
H387        H  0.36154160  0.56569575  0.54196360     0.15490
N388        N  0.32878680  0.60247381  0.60000636     0.74580
O389        O  0.34157467  0.41005626  0.65403828    -0.38870
O390        O  0.30642479  0.38599647  0.58988255    -0.38810
O391        O  0.29357863  0.60237231  0.61968053    -0.39520
O392        O  0.35269695  0.63474844  0.56910078    -0.39580
C393        C  0.37832571  0.74981808  0.86806865    -0.11860
C394        C  0.33036022  0.73002560  0.84764808     0.05140
C395        C  0.29894821  0.74553723  0.86327319    -0.07150
C396        C  0.31510044  0.77851448  0.89958232    -0.07890
C397        C  0.36221594  0.79712222  0.92060551    -0.02450
C398        C  0.39483062  0.78331509  0.90448160     0.04370
N399        N  0.44424396  0.80251341  0.92459334     0.66880
H400        H  0.40258297  0.73826818  0.85605846     0.15780
H401        H  0.29027421  0.78925664  0.91190736     0.15490
N402        N  0.25075193  0.72858862  0.84252334     0.74580
O403        O  0.46345358  0.77677573  0.92091466    -0.38870
O404        O  0.47106039  0.84725902  0.94292087    -0.38810
O405        O  0.20989513  0.71032176  0.86491348    -0.39520
O406        O  0.25029165  0.73725286  0.80260031    -0.39580
C407        C  0.39636375  0.78109419  0.59146452    -0.11860
C408        C  0.36673893  0.79985821  0.58113300     0.05140
C409        C  0.32695100  0.79013704  0.60988927    -0.07150
C410        C  0.31604885  0.75941041  0.64709178    -0.07890
C411        C  0.34380494  0.73811647  0.65649640    -0.02450
C412        C  0.38655108  0.75170943  0.62939347     0.04370
N413        N  0.42142494  0.73790847  0.64042436     0.66880
H414        H  0.42815198  0.79043288  0.57015018     0.15780
H415        H  0.28363558  0.74986937  0.66764071     0.15490
N416        N  0.29558083  0.80880439  0.60101728     0.74580
O417        O  0.44174980  0.72734968  0.61086114    -0.38870
O418        O  0.43979271  0.74636373  0.67832090    -0.38810
O419        O  0.27863888  0.80577178  0.56325964    -0.39520
O420        O  0.27973346  0.82273034  0.63186287    -0.39580
C421        C  0.07916726  0.54144215  0.60043639    -0.11860
C422        C  0.06316224  0.49452720  0.57913480     0.05140
C423        C  0.07816839  0.46289820  0.59550449    -0.07150
C424        C  0.11101747  0.48060148  0.63192830    -0.07890
C425        C  0.12860037  0.52852253  0.65255591    -0.02450
C426        C  0.11117245  0.55859475  0.63728841     0.04370
N427        N  0.12457821  0.60581617  0.65912314     0.66880
H428        H  0.06680707  0.56500582  0.58806820     0.15780
H429        H  0.12374783  0.45720729  0.64385847     0.15490
N430        N  0.06081025  0.41321280  0.57556999     0.74580
O431        O  0.13357490  0.64474106  0.63747745    -0.38870
O432        O  0.12013479  0.60593760  0.69982533    -0.38810
O433        O  0.01633882  0.38443498  0.55783512    -0.39520
O434        O  0.08771250  0.39542214  0.57930740    -0.39580
C435        C  0.08977989  0.52102586  0.84644297    -0.11860
C436        C  0.12989835  0.51396611  0.84633338     0.05140
C437        C  0.13467550  0.48906693  0.88247218    -0.07150
C438        C  0.09947528  0.47193028  0.91718146    -0.07890
C439        C  0.06161325  0.48213442  0.91859633    -0.02450
C440        C  0.05647843  0.50666056  0.88235453     0.04370
N441        N  0.02028782  0.52043300  0.88227356     0.66880
H442        H  0.08569006  0.54014759  0.81911579     0.15780
H443        H  0.10378209  0.45305767  0.94459018     0.15490
N444        N  0.17718704  0.48443115  0.88629204     0.74580
O445        O  0.01977761  0.54648333  0.91338364    -0.38870
O446        O  0.99481071  0.51394383  0.84834274    -0.38810
O447        O  0.22384773  0.52570532  0.88567716    -0.39520
O448        O  0.16829111  0.44139156  0.89913188    -0.39580
C449        C  0.57230896  0.40539090  0.63484570    -0.11860
C450        C  0.53255625  0.35783704  0.65550525     0.05140
C451        C  0.48039817  0.33092479  0.64052574    -0.07150
C452        C  0.46981430  0.35057836  0.60458241    -0.07890
C453        C  0.50979442  0.39693812  0.58333990    -0.02450
C454        C  0.56167108  0.42557314  0.59906428     0.04370
N455        N  0.60375515  0.47443721  0.57906968     0.66880
H456        H  0.61221476  0.42699931  0.64656989     0.15780
H457        H  0.43010713  0.32844245  0.59218483     0.15490
N458        N  0.43804435  0.28231956  0.65979377     0.74580
O459        O  0.65077643  0.49085561  0.58427418    -0.38870
O460        O  0.59473124  0.50375701  0.55935369    -0.38810
O461        O  0.42084601  0.28317690  0.69655259    -0.39520
O462        O  0.41124526  0.24111558  0.63676233    -0.39580
C463        C  0.51654711  0.40767802  0.88677697    -0.11860
C464        C  0.49651335  0.37546775  0.92392652     0.05140
C465        C  0.48800831  0.32552301  0.92318766    -0.07150
C466        C  0.50265865  0.31069661  0.88634321    -0.07890
C467        C  0.52424286  0.34359636  0.84962470    -0.02450
C468        C  0.53040879  0.39230383  0.84978718     0.04370
N469        N  0.54929002  0.42598831  0.81244111     0.66880
H470        H  0.52277737  0.44577826  0.88685696     0.15780
H471        H  0.49661355  0.27269071  0.88626091     0.15490
N472        N  0.46333741  0.28886726  0.95885782     0.74580
O473        O  0.51902707  0.43308847  0.79242039    -0.38870
O474        O  0.59788030  0.45613300  0.80471784    -0.38810
O475        O  0.42500171  0.28286157  0.47853470    -0.39520
O476        O  0.47600731  0.25825668  0.96772423    -0.39580
C477        C  0.51506301  0.10692227  0.91347764    -0.11860
C478        C  0.46109328  0.07670773  0.92121936     0.05140
C479        C  0.42796483  0.07754467  0.89085901    -0.07150
C480        C  0.45078001  0.11046939  0.85403175    -0.07890
C481        C  0.50530098  0.14185688  0.84657951    -0.02450
C482        C  0.53739722  0.13847298  0.87640773     0.04370
N483        N  0.59250508  0.16556728  0.86933049     0.66880
H484        H  0.54012508  0.10516534  0.93628814     0.15780
H485        H  0.42575915  0.11251640  0.83147900     0.15490
N486        N  0.37181844  0.04618729  0.89673568     0.74580
O487        O  0.62443891  0.19312541  0.89932942    -0.38870
O488        O  0.60803899  0.15330960  0.83704704    -0.38810
O489        O  0.35134316  0.03080074  0.93390512    -0.39520
O490        O  0.34233250  0.03587616  0.86472758    -0.39580
C491        C  0.50367947  0.09476525  0.59350301    -0.11860
C492        C  0.45204435  0.07232829  0.58076294     0.05140
C493        C  0.42144531  0.08411995  0.60425179    -0.07150
C494        C  0.44477866  0.12003912  0.63921739    -0.07890
C495        C  0.49723400  0.14379058  0.65116375    -0.02450
C496        C  0.52672889  0.13073115  0.62784758     0.04370
N497        N  0.58165946  0.15810061  0.63519253     0.66880
H498        H  0.52742493  0.08673460  0.57471713     0.15780
H499        H  0.42184039  0.12945761  0.65748006     0.15490
N500        N  0.36749908  0.06067570  0.59320490     0.74580
O501        O  0.60072446  0.13220792  0.63824647    -0.38870
O502        O  0.61189606  0.20727749  0.62795846    -0.38810
O503        O  0.34063505  0.01763388  0.57241413    -0.39520
O504        O  0.34509059  0.08073909  0.60722390    -0.39580
C505        C  0.78562530  0.35633585  0.88937552    -0.11860
C506        C  0.78659000  0.39022836  0.91998915     0.05140
C507        C  0.75506636  0.40815204  0.91320303    -0.07150
C508        C  0.72083656  0.38872809  0.87760705    -0.07890
C509        C  0.71791158  0.35276774  0.84779942    -0.02450
C510        C  0.75177609  0.33735142  0.85362974     0.04370
N511        N  0.75190184  0.30174278  0.82436393     0.66880
H512        H  0.80957897  0.34230402  0.89441100     0.15780
H513        H  0.69648361  0.40233626  0.87307667     0.15490
N514        N  0.75796840  0.44656964  0.94154462     0.74580
O515        O  0.79405763  0.31603370  0.80580143    -0.38870
O516        O  0.71378726  0.25327556  0.82443254    -0.38810
O517        O  0.80111571  0.48308398  0.95827674    -0.39520
O518        O  0.71873348  0.44749572  0.94636581    -0.39580
C519        C  0.76821834  0.33267521  0.60108631    -0.11860
C520        C  0.78634490  0.38091856  0.58111298     0.05140
C521        C  0.77566318  0.41501736  0.60027091    -0.07150
C522        C  0.74271903  0.39701679  0.63696323    -0.07890
C523        C  0.72209432  0.34729144  0.65565877    -0.02450
C524        C  0.73745329  0.31596777  0.63880566     0.04370
N525        N  0.72376981  0.26826932  0.66008687     0.66880
H526        H  0.77847175  0.30795179  0.58714037     0.15780
H527        H  0.73218700  0.42157531  0.65069511     0.15490
N528        N  0.79775891  0.46752669  0.58346119     0.74580
O529        O  0.71864060  0.23119718  0.63823750    -0.38870
O530        O  0.72511139  0.26650489  0.70093338    -0.38810
O531        O  0.83760172  0.49072317  0.55908934    -0.39520
O532        O  0.78105301  0.49341096  0.59676867    -0.39580
loop_ 
_geom_bond_atom_site_label_1 
_geom_bond_atom_site_label_2 
_geom_bond_distance 
_geom_bond_site_symmetry_2 
_ccdc_geom_bond_type 
C1            C2   1.401       .  A
C1            C6   1.406       .  A
C1          C240   1.485       .  S
C2          C269   1.395       .  A
C2          H273   1.084       .  S
C3            C4   1.399       .  A
C3          C268   1.395       .  A
C3          C254   1.477       .  S
C4            C5   1.415   1_554  A
C4            H8   1.079       .  S
C5          C272   1.417       .  A
C5           C52   1.510       .  S
C6          C271   1.417       .  A
C6            H9   1.079       .  S
H7          C268   1.084       .  S
C10          C11   1.396       .  A
C10          C15   1.403   1_545  A
C10         C212   1.476       .  S
C11         C278   1.395       .  A
C11          H16   1.085       .  S
C12          C13   1.400   1_545  A
C12         C277   1.395       .  A
C12         C226   1.476       .  S
C13         C280   1.418       .  A
C13          H17   1.077       .  S
C14          C15   1.418       .  A
C14         C279   1.418       .  A
C14         C327   1.516       .  S
C15          H18   1.078       .  S
C19          C20   1.398       .  A
C19          C24   1.404       .  A
C19         C198   1.484       .  S
C20         C287   1.393       .  A
C20          H25   1.084       .  S
C21          C22   1.400       .  A
C21         C286   1.393       .  A
C21         C187   1.475       .  S
C22          C23   1.418       .  A
C22          H26   1.076       .  S
C23         C290   1.418   1_554  A
C23          C70   1.514   1_554  S
C24         C289   1.418       .  A
C24          H27   1.078       .  S
O28         Cr46   2.023       .  S
O28          C36   1.271       .  A
O29         Cr46   1.962       .  S
O29          C30   1.257       .  A
C30         C257   1.484       .  S
C30          O31   1.268       .  A
O31         Cr47   2.020       .  S
O32         Cr47   1.966       .  S
O32          C33   1.260       .  A
C33         C184   1.489       .  S
C33          O34   1.268       .  A
O34         Cr48   2.018       .  S
O35         Cr48   1.969       .  S
O35          C36   1.259       .  A
C36         C229   1.484       .  S
O37         Cr46   1.968       .  S
O37          C45   1.257       .  A
O38         Cr46   2.019       .  S
O38          C39   1.267       .  A
C39         C243   1.493       .  S
C39          O40   1.259       .  A
O40         Cr47   1.969       .  S
O41         Cr47   2.015       .  S
O41          C42   1.266       .  A
C42         C201   1.483       .  S
C42          O43   1.258       .  A
O43         Cr48   1.968       .  S
O44         Cr48   2.020       .  S
O44          C45   1.268       .  A
C45         C215   1.494       .  S
Cr46         O49   1.763       .  S
Cr47         O49   1.769       .  S
Cr48         O49   1.770       .  S
C50          C51   1.398   1_455  A
C50          C55   1.392   1_554  A
C50         C156   1.475       .  S
C51          C52   1.415   1_554  A
C51          H56   1.079       .  S
C52         C319   1.418       .  A
C53          C54   1.408   1_655  A
C53         C318   1.418       .  A
C53          H57   1.079       .  S
C54         C321   1.401       .  A
C54         C173   1.491       .  S
C55         C320   1.401       .  A
C55          H58   1.084       .  S
C59          C60   1.402       .  A
C59          C64   1.395       .  A
C59         C142   1.478       .  S
C60          C61   1.418       .  A
C60          H65   1.076       .  S
C61         C328   1.418   1_554  A
C61         C280   1.516       .  S
C62          C63   1.404       .  A
C62         C327   1.418       .  A
C62          H66   1.078       .  S
C63         C330   1.395       .  A
C63         C131   1.477       .  S
C64         C329   1.395   1_554  A
C64          H67   1.085       .  S
C68          C69   1.406       .  A
C68          C73   1.398   1_554  A
C68         C117   1.495       .  S
C69          C70   1.420   1_554  A
C69          H74   1.074       .  S
C70         C337   1.418       .  A
C71          C72   1.400       .  A
C71         C336   1.418       .  A
C71          H75   1.079       .  S
C72         C339   1.394       .  A
C72         C100   1.480       .  S
C73         C338   1.394       .  A
C73          H76   1.084       .  S
O77         Cr95   2.017       .  S
O77          C85   1.268       .  A
O78         Cr95   1.963       .  S
O78          C79   1.257       .  A
C79         C159   1.481       .  S
C79          O80   1.270       .  A
O80         Cr96   2.020       .  S
O81         Cr96   1.961       .  S
O81          C82   1.256       .  A
C82         C114   1.466       .  S
C82          O83   1.268       .  A
O83         Cr97   2.019       .  S
O84         Cr97   1.965       .  S
O84          C85   1.256       .  A
C85         C145   1.488       .  S
O86         Cr95   1.958       .  S
O86          C94   1.256       .  A
O87         Cr95   2.014       .  S
O87          C88   1.268       .  A
C88         C170   1.486       .  S
C88          O89   1.258       .  A
O89         Cr96   1.967       .  S
O90         Cr96   2.021       .  S
O90          C91   1.267       .  A
C91         C103   1.488       .  S
C91          O92   1.258       .  A
O92         Cr97   1.960       .  S
O93         Cr97   2.027       .  S
O93          C94   1.270       .  A
C94         C128   1.482       .  S
Cr95         O98   1.763       .  S
Cr96         O98   1.770       .  S
Cr97         O98   1.766       .  S
C99         C100   1.403       .  A
C99         C104   1.406       .  A
C99         H106   1.084       .  S
C100        C101   1.414       .  A
C101        C102   1.398       .  A
C101        N108   1.441       .  S
C102        C103   1.407       .  A
C102        H107   1.083       .  S
C103        C104   1.416       .  A
C104        N105   1.431       .  S
N105        O109   1.262       .  A
N105        O110   1.262       .  A
N108        O111   1.263       .  A
N108        O378   1.263       .  A
O112        N374   1.263       .  A
C113        C114   1.401       .  A
C113        C118   1.406       .  A
C113        H120   1.084       .  S
C114        C115   1.412       .  A
C115        C116   1.401       .  A
C115        N122   1.444       .  S
C116        C117   1.409       .  A
C116        H121   1.082       .  S
C117        C118   1.419       .  A
C118        N119   1.437       .  S
N119        O123   1.263       .  A
N119        O124   1.262       .  A
N122        O125   1.262       .  A
N122        O126   1.263       .  A
C127        C128   1.404       .  A
C127        C132   1.408       .  A
C127        H134   1.083       .  S
C128        C129   1.417       .  A
C129        C130   1.398       .  A
C129        N136   1.435       .  S
C130        C131   1.398       .  A
C130        H135   1.084       .  S
C131        C132   1.417       .  A
C132        N133   1.442       .  S
N133        O137   1.263       .  A
N133        O138   1.263       .  A
N136        O139   1.262       .  A
N136        O140   1.263       .  A
C141        C142   1.400       .  A
C141        C146   1.403       .  A
C141        H148   1.084       .  S
C142        C143   1.414       .  A
C143        C144   1.402       .  A
C143        N150   1.439       .  S
C144        C145   1.406       .  A
C144        H149   1.083       .  S
C145        C146   1.420       .  A
C146        N147   1.438       .  S
N147        O151   1.263       .  A
N147        O152   1.263       .  A
N150        O153   1.262       .  A
N150        O154   1.263       .  A
C155        C156   1.399       .  A
C155        C160   1.402       .  A
C155        H162   1.084       .  S
C156        C157   1.415       .  A
C157        C158   1.404       .  A
C157        N164   1.442       .  S
C158        C159   1.403       .  A
C158        H163   1.084       .  S
C159        C160   1.418       .  A
C160        N161   1.438       .  S
N161        O165   1.263       .  A
N161        O166   1.263       .  A
N164        O167   1.263       .  A
N164        O168   1.263       .  A
C169        C170   1.406       .  A
C169        C174   1.404       .  A
C169        H176   1.084       .  S
C170        C171   1.417       .  A
C171        C172   1.400       .  A
C171        N178   1.435       .  S
C172        C173   1.405       .  A
C172        H177   1.084       .  S
C173        C174   1.417       .  A
C174        N175   1.436       .  S
N175        O179   1.262       .  A
N175        O180   1.263   1_455  A
N178        O181   1.263       .  A
N178        O182   1.262       .  A
C183        C184   1.410       .  A
C183        C188   1.406       .  A
C183        H190   1.083       .  S
C184        C185   1.415       .  A
C185        C186   1.400       .  A
C185        N192   1.432       .  S
C186        C187   1.401       .  A
C186        H191   1.084       .  S
C187        C188   1.412       .  A
C188        N189   1.443       .  S
N189        O193   1.263       .  A
N189        O194   1.263       .  A
N192        O195   1.262       .  A
N192        O196   1.262       .  A
C197        C198   1.404       .  A
C197        C202   1.401       .  A
C197        H204   1.084       .  S
C198        C199   1.416       .  A
C199        C200   1.402       .  A
C199        N206   1.440       .  S
C200        C201   1.405       .  A
C200        H205   1.084       .  S
C201        C202   1.413       .  A
C202        N203   1.431       .  S
N203        O207   1.262       .  A
N203        O208   1.262       .  A
N206        O210   1.263       .  A
N206        O475   1.263       .  A
O209        N472   1.263       .  A
C211        C212   1.398       .  A
C211        C216   1.398       .  A
C211        H218   1.085       .  S
C212        C213   1.416       .  A
C213        C214   1.411       .  A
C213        N220   1.444       .  S
C214        C215   1.409       .  A
C214        H219   1.083       .  S
C215        C216   1.419       .  A
C216        N217   1.433       .  S
N217        O221   1.263       .  A
N217        O222   1.262       .  A
N220        O223   1.262       .  A
N220        O224   1.263       .  A
C225        C226   1.399       .  A
C225        C230   1.397       .  A
C225        H232   1.085       .  S
C226        C227   1.415       .  A
C227        C228   1.411       .  A
C227        N234   1.444       .  S
C228        C229   1.408       .  A
C228        H233   1.083       .  S
C229        C230   1.410       .  A
C230        N231   1.429       .  S
N231        O235   1.262       .  A
N231        O236   1.261       .  A
N234        O237   1.262       .  A
N234        O238   1.263       .  A
C239        C240   1.403       .  A
C239        C244   1.402       .  A
C239        H246   1.084       .  S
C240        C241   1.414       .  A
C241        C242   1.405       .  A
C241        N248   1.441       .  S
C242        C243   1.410       .  A
C242        H247   1.083       .  S
C243        C244   1.417       .  A
C244        N245   1.432       .  S
N245        O249   1.262       .  A
N245        O250   1.262       .  A
N248        O251   1.263       .  A
N248        O252   1.263       .  A
C253        C254   1.399       .  A
C253        C258   1.402       .  A
C253        H260   1.084       .  S
C254        C255   1.418       .  A
C255        C256   1.408       .  A
C255        N262   1.446       .  S
C256        C257   1.404       .  A
C256        H261   1.083       .  S
C257        C258   1.418       .  A
C258        N259   1.440       .  S
N259        O263   1.263       .  A
N259        O264   1.263       .  A
N262        O265   1.262       .  A
N262        O266   1.263       .  A
C267        C268   1.401   1_556  A
C267        C272   1.406       .  A
C267        C506   1.485       .  S
C269        C270   1.399       .  A
C269        C520   1.477       .  S
C270        C271   1.415       .  A
C270        H274   1.079       .  S
C271        C318   1.510       .  S
C272        H275   1.079       .  S
C276        C277   1.396   1_556  A
C276        C281   1.403   1_545  A
C276        C478   1.476       .  S
C277        H282   1.085       .  S
C278        C279   1.400   1_545  A
C278        C492   1.476       .  S
C279        H283   1.077       .  S
C280        C281   1.418   1_554  A
C281        H284   1.078       .  S
C285        C286   1.398   1_556  A
C285        C290   1.404       .  A
C285        C464   1.484       .  S
C286        H291   1.084       .  S
C287        C288   1.400       .  A
C287        C453   1.475       .  S
C288        C289   1.418       .  A
C288        H292   1.076       .  S
C289        C336   1.514       .  S
C290        H293   1.078       .  S
O294       Cr312   2.023       .  S
O294        C302   1.271       .  A
O295       Cr312   1.962       .  S
O295        C296   1.257       .  A
C296        C523   1.484       .  S
C296        O297   1.268       .  A
O297       Cr313   2.020       .  S
O298       Cr313   1.966       .  S
O298        C299   1.260       .  A
C299        C450   1.489       .  S
C299        O300   1.268       .  A
O300       Cr314   2.018       .  S
O301       Cr314   1.969       .  S
O301        C302   1.259       .  A
C302        C495   1.484       .  S
O303       Cr312   1.968       .  S
O303        C311   1.257       .  A
O304       Cr312   2.019       .  S
O304        C305   1.267       .  A
C305        C509   1.493       .  S
C305        O306   1.259       .  A
O306       Cr313   1.969       .  S
O307       Cr313   2.015       .  S
O307        C308   1.266       .  A
C308        C467   1.483       .  S
C308        O309   1.258       .  A
O309       Cr314   1.968       .  S
O310       Cr314   2.020       .  S
O310        C311   1.268       .  A
C311        C481   1.494       .  S
Cr312       O315   1.763       .  S
Cr313       O315   1.769       .  S
Cr314       O315   1.770       .  S
C316        C317   1.398   1_455  A
C316        C321   1.392       .  A
C316        C422   1.475       .  S
C317        C318   1.415       .  A
C317        H322   1.079       .  S
C319        C320   1.408   1_655  A
C319        H323   1.079       .  S
C320        C439   1.491       .  S
C321        H324   1.084       .  S
C325        C326   1.402       .  A
C325        C330   1.395       .  A
C325        C408   1.478       .  S
C326        C327   1.418       .  A
C326        H331   1.076       .  S
C328        C329   1.404       .  A
C328        H332   1.078       .  S
C329        C397   1.477       .  S
C330        H333   1.085       .  S
C334        C335   1.406       .  A
C334        C339   1.398       .  A
C334        C383   1.495       .  S
C335        C336   1.420       .  A
C335        H340   1.074       .  S
C337        C338   1.400       .  A
C337        H341   1.079       .  S
C338        C366   1.480       .  S
C339        H342   1.084       .  S
O343       Cr361   2.017       .  S
O343        C351   1.268       .  A
O344       Cr361   1.963       .  S
O344        C345   1.257       .  A
C345        C425   1.481       .  S
C345        O346   1.270       .  A
O346       Cr362   2.020       .  S
O347       Cr362   1.961       .  S
O347        C348   1.256       .  A
C348        C380   1.466       .  S
C348        O349   1.268       .  A
O349       Cr363   2.019       .  S
O350       Cr363   1.965       .  S
O350        C351   1.256       .  A
C351        C411   1.488       .  S
O352       Cr361   1.958       .  S
O352        C360   1.256       .  A
O353       Cr361   2.014       .  S
O353        C354   1.268       .  A
C354        C436   1.486       .  S
C354        O355   1.258       .  A
O355       Cr362   1.967       .  S
O356       Cr362   2.021       .  S
O356        C357   1.267       .  A
C357        C369   1.488       .  S
C357        O358   1.258       .  A
O358       Cr363   1.960       .  S
O359       Cr363   2.027       .  S
O359        C360   1.270       .  A
C360        C394   1.482       .  S
Cr361       O364   1.763       .  S
Cr362       O364   1.770       .  S
Cr363       O364   1.766       .  S
C365        C366   1.403       .  A
C365        C370   1.406       .  A
C365        H372   1.084       .  S
C366        C367   1.414       .  A
C367        C368   1.398       .  A
C367        N374   1.441       .  S
C368        C369   1.407       .  A
C368        H373   1.083       .  S
C369        C370   1.416       .  A
C370        N371   1.431       .  S
N371        O375   1.262       .  A
N371        O376   1.262       .  A
N374        O377   1.263       .  A
C379        C380   1.401       .  A
C379        C384   1.406       .  A
C379        H386   1.084       .  S
C380        C381   1.412       .  A
C381        C382   1.401       .  A
C381        N388   1.444       .  S
C382        C383   1.409       .  A
C382        H387   1.082       .  S
C383        C384   1.419       .  A
C384        N385   1.437       .  S
N385        O389   1.263       .  A
N385        O390   1.262       .  A
N388        O391   1.262       .  A
N388        O392   1.263       .  A
C393        C394   1.404       .  A
C393        C398   1.408       .  A
C393        H400   1.083       .  S
C394        C395   1.417       .  A
C395        C396   1.398       .  A
C395        N402   1.435       .  S
C396        C397   1.398       .  A
C396        H401   1.084       .  S
C397        C398   1.417       .  A
C398        N399   1.442       .  S
N399        O403   1.263       .  A
N399        O404   1.263       .  A
N402        O405   1.262       .  A
N402        O406   1.263       .  A
C407        C408   1.400       .  A
C407        C412   1.403       .  A
C407        H414   1.084       .  S
C408        C409   1.414       .  A
C409        C410   1.402       .  A
C409        N416   1.439       .  S
C410        C411   1.406       .  A
C410        H415   1.083       .  S
C411        C412   1.420       .  A
C412        N413   1.438       .  S
N413        O417   1.263       .  A
N413        O418   1.263       .  A
N416        O419   1.262       .  A
N416        O420   1.263       .  A
C421        C422   1.399       .  A
C421        C426   1.402       .  A
C421        H428   1.084       .  S
C422        C423   1.415       .  A
C423        C424   1.404       .  A
C423        N430   1.442       .  S
C424        C425   1.403       .  A
C424        H429   1.084       .  S
C425        C426   1.418       .  A
C426        N427   1.438       .  S
N427        O431   1.263       .  A
N427        O432   1.263       .  A
N430        O433   1.263       .  A
N430        O434   1.263       .  A
C435        C436   1.406       .  A
C435        C440   1.404       .  A
C435        H442   1.084       .  S
C436        C437   1.417       .  A
C437        C438   1.400       .  A
C437        N444   1.435       .  S
C438        C439   1.405       .  A
C438        H443   1.084       .  S
C439        C440   1.417       .  A
C440        N441   1.436       .  S
N441        O445   1.262       .  A
N441        O446   1.263   1_455  A
N444        O447   1.263       .  A
N444        O448   1.262       .  A
C449        C450   1.410       .  A
C449        C454   1.406       .  A
C449        H456   1.083       .  S
C450        C451   1.415       .  A
C451        C452   1.400       .  A
C451        N458   1.432       .  S
C452        C453   1.401       .  A
C452        H457   1.084       .  S
C453        C454   1.412       .  A
C454        N455   1.443       .  S
N455        O459   1.263       .  A
N455        O460   1.263       .  A
N458        O461   1.262       .  A
N458        O462   1.262       .  A
C463        C464   1.404       .  A
C463        C468   1.401       .  A
C463        H470   1.084       .  S
C464        C465   1.416       .  A
C465        C466   1.402       .  A
C465        N472   1.440       .  S
C466        C467   1.405       .  A
C466        H471   1.084       .  S
C467        C468   1.413       .  A
C468        N469   1.431       .  S
N469        O473   1.262       .  A
N469        O474   1.262       .  A
N472        O476   1.263       .  A
C477        C478   1.398       .  A
C477        C482   1.398       .  A
C477        H484   1.085       .  S
C478        C479   1.416       .  A
C479        C480   1.411       .  A
C479        N486   1.444       .  S
C480        C481   1.409       .  A
C480        H485   1.083       .  S
C481        C482   1.419       .  A
C482        N483   1.433       .  S
N483        O487   1.263       .  A
N483        O488   1.262       .  A
N486        O489   1.262       .  A
N486        O490   1.263       .  A
C491        C492   1.399       .  A
C491        C496   1.397       .  A
C491        H498   1.085       .  S
C492        C493   1.415       .  A
C493        C494   1.411       .  A
C493        N500   1.444       .  S
C494        C495   1.408       .  A
C494        H499   1.083       .  S
C495        C496   1.410       .  A
C496        N497   1.429       .  S
N497        O501   1.262       .  A
N497        O502   1.261       .  A
N500        O503   1.262       .  A
N500        O504   1.263       .  A
C505        C506   1.403       .  A
C505        C510   1.402       .  A
C505        H512   1.084       .  S
C506        C507   1.414       .  A
C507        C508   1.405       .  A
C507        N514   1.441       .  S
C508        C509   1.410       .  A
C508        H513   1.083       .  S
C509        C510   1.417       .  A
C510        N511   1.432       .  S
N511        O515   1.262       .  A
N511        O516   1.262       .  A
N514        O517   1.263       .  A
N514        O518   1.263       .  A
C519        C520   1.399       .  A
C519        C524   1.402       .  A
C519        H526   1.084       .  S
C520        C521   1.418       .  A
C521        C522   1.408       .  A
C521        N528   1.446       .  S
C522        C523   1.404       .  A
C522        H527   1.083       .  S
C523        C524   1.418       .  A
C524        N525   1.440       .  S
N525        O529   1.263       .  A
N525        O530   1.263       .  A
N528        O531   1.262       .  A
N528        O532   1.263       .  A
