geometry optimzed in LAMMPS
_audit_creation_date              2020-12-01 
_audit_creation_method            'lammps2cif' 
_symmetry_space_group_name_H-M    'P1' 
_symmetry_Int_Tables_number       1 
_symmetry_cell_setting            triclinic 
loop_ 
_symmetry_equiv_pos_as_xyz 
  x,y,z 
_cell_length_a                    46.30942678 
_cell_length_b                    40.73732635437673 
_cell_length_c                    41.15442499252369 
_cell_angle_alpha                 90.25597735072932 
_cell_angle_beta                  87.61124153201095 
_cell_angle_gamma                 90.9375043592432 
loop_ 
_atom_site_label 
_atom_site_type_symbol 
_atom_site_fract_x 
_atom_site_fract_y 
_atom_site_fract_z 
_atom_site_charge 
N1          N  0.48546403  0.54964720  0.00444873    -0.35800
N2          N  0.99046913  0.50132701  0.45179145    -0.56400
N3          N  0.99321189  0.44876569  0.49813349    -0.35800
N4          N  0.99084429  0.49675837  0.05060039    -0.56400
C5          C  0.49316597  0.56936608  0.47889045     0.27700
C6          C  0.49047165  0.56685480  0.03199065     0.27700
C7          C  0.00070855  0.43322739  0.46999885     0.27700
C8          C  0.00337855  0.43118224  0.02273170     0.27700
C9          C  0.48438670  0.52861324  0.43503351     0.36400
C10         C  0.98502645  0.47554512  0.43202103     0.36400
C11         C  0.48221633  0.52107964  0.07106117     0.36400
C12         C  0.98815446  0.46851440  0.06766031     0.36400
C13         C  0.50210492  0.59978591  0.49034625    -0.21100
C14         C  0.50015258  0.59823150  0.02370732    -0.21100
C15         C  0.01608547  0.40530868  0.47668559    -0.21100
C16         C  0.01778885  0.40412853  0.00999030    -0.21100
C17         C  0.47506510  0.52015417  0.40448573    -0.22200
C18         C  0.97492111  0.48652783  0.40281849    -0.22200
C19         C  0.47356551  0.50814867  0.10108353    -0.22200
C20         C  0.97738728  0.47483445  0.09894566    -0.22200
C21         C  0.49024022  0.56096391  0.44561127    -0.17500
C22         C  0.48579750  0.55494990  0.06425149    -0.17500
C23         C  0.99816849  0.43776617  0.05628262    -0.17500
C24         C  0.99220748  0.44272540  0.43881337    -0.17500
H25         H  0.50879785  0.62099693  0.47601193     0.15400
H26         H  0.50581691  0.61791130  0.04012913     0.15400
H27         H  0.02472456  0.38755996  0.45937477     0.15400
H28         H  0.02821469  0.38514285  0.02333729     0.15400
H29         H  0.46925002  0.53643708  0.38521123     0.13700
H30         H  0.96890863  0.47198850  0.38202885     0.13700
H31         H  0.46623011  0.52147926  0.12260460     0.13700
H32         H  0.97337031  0.45736821  0.11841846     0.13700
H33         H  0.47540460  0.52667883  0.00336238     0.26900
H34         H  0.97881331  0.46806688  0.50056855     0.26900
C35         C  0.48621838  0.23513735  0.27173418     0.46200
H36         H  0.46904164  0.23610325  0.29137834    -0.02800
C37         C  0.02592008  0.23382251  0.22531786     0.46300
H38         H  0.04300292  0.23385746  0.20565300    -0.02800
C39         C  0.01295033  0.21686467  0.28140515    -0.16500
C40         C  0.47676319  0.21674830  0.24084027    -0.16300
C41         C  0.49749558  0.26917919  0.26132955    -0.16600
C42         C  0.03453986  0.21618418  0.25712303    -0.16600
C43         C  0.49787709  0.21617900  0.21615292    -0.16200
C44         C  0.01616644  0.26878894  0.23467851    -0.16500
N45         N  0.29879447  0.00271718  0.25329402    -0.35800
N46         N  0.25651807  0.94894797  0.25360688    -0.56400
N47         N  0.20988341  0.99624456  0.25806286    -0.35800
N48         N  0.25223439  0.05007550  0.25477911    -0.56400
C49         C  0.31639435  0.97707199  0.24672680     0.27700
C50         C  0.31414666  0.03061288  0.24648055     0.27700
C51         C  0.19486438  0.96841943  0.25115998     0.27700
C52         C  0.19249814  0.02192279  0.25270214     0.27700
C53         C  0.28069597  0.93138623  0.25730276     0.36400
C54         C  0.23388016  0.92797891  0.25882996     0.36400
C55         C  0.27486666  0.07128231  0.25688625     0.36400
C56         C  0.22805178  0.06779574  0.26017425     0.36400
C57         C  0.34342851  0.98882442  0.23617580    -0.21100
C58         C  0.34204701  0.02251471  0.23609379    -0.21100
C59         C  0.16753088  0.97658794  0.24155333    -0.21100
C60         C  0.16596500  0.01026851  0.24278281    -0.21100
C61         C  0.27338859  0.89909260  0.26477124    -0.22200
C62         C  0.24374596  0.89695846  0.26586217    -0.22200
C63         C  0.26497049  0.10270589  0.26321324    -0.22200
C64         C  0.23534533  0.10047855  0.26539336    -0.22200
C65         C  0.30926693  0.94341133  0.25152809    -0.17500
C66         C  0.30423409  0.06320560  0.25092687    -0.17500
C67         C  0.19947260  0.05553902  0.25762808    -0.17500
C68         C  0.20455870  0.93579588  0.25486896    -0.17500
H69         H  0.36233902  0.97463501  0.22950887     0.15400
H70         H  0.35976964  0.03909504  0.22939775     0.15400
H71         H  0.15034527  0.95999670  0.23461805     0.15400
H72         H  0.14738621  0.02453590  0.23691122     0.15400
H73         H  0.28789964  0.87903693  0.26856938     0.13700
H74         H  0.23094712  0.87493995  0.27079548     0.13700
H75         H  0.27770589  0.12504667  0.26548537     0.13700
H76         H  0.22083055  0.12076212  0.26958293     0.13700
H77         H  0.27850223  0.00133269  0.26495932     0.26900
H78         H  0.22964360  0.99752105  0.26910995     0.26900
C79         C  0.02165980  0.76659278  0.27178105     0.46200
H80         H  0.03550555  0.76900857  0.29270062    -0.02800
C81         C  0.48699450  0.76211094  0.22457357     0.46300
H82         H  0.47217324  0.75969854  0.20412608    -0.02800
C83         C  0.49504224  0.78868993  0.27624683    -0.16500
C84         C  0.03642983  0.77736289  0.23864421    -0.16300
C85         C  0.00982261  0.73146054  0.26733288    -0.16600
C86         C  0.47604261  0.78581235  0.25150569    -0.16600
C87         C  0.01650454  0.77722968  0.21411210    -0.16200
C88         C  0.49306607  0.72879006  0.24054312    -0.16500
O89         O  0.01823299  0.97126173  0.03870079    -0.72200
O90         O  0.01747432  0.03652179  0.46756668    -0.73200
O91         O  0.01158700  0.04037621  0.03504706    -0.61800
O92         O  0.02325641  0.96785318  0.47018636    -0.70200
O93         O  0.47560544  0.96038750  0.47028190    -0.69700
O94         O  0.46394211  0.03451925  0.03305326    -0.61000
O95         O  0.46994341  0.02963267  0.46444053    -0.73500
O96         O  0.47059149  0.96494668  0.03886305    -0.72300
Cu97       Cu  0.01910770  0.00414334  0.00311361     1.04600
Cu98       Cu  0.46814979  0.99708274  0.00169165     1.04300
C99         C  0.49507204  0.95715669  0.04967293     0.94000
C100        C  0.49374671  0.04368030  0.45499083     0.93200
C101        C  0.48610685  0.05000594  0.04290893     0.85300
C102        C  0.50097666  0.95291997  0.45980245     0.91600
C103        C  0.00966931  0.86229813  0.17872458    -0.01300
C104        C  0.00392349  0.85524379  0.14608824     0.07300
C105        C  0.50353414  0.82251275  0.13541610    -0.07200
C106        C  0.50846993  0.79679263  0.15682182     0.04800
C107        C  0.01456190  0.80371924  0.18945787    -0.14400
C108        C  0.01476855  0.83663364  0.20006894    -0.07800
C109        C  0.00076840  0.88161251  0.12190963     0.05700
C110        C  0.02294756  0.88599197  0.09815882    -0.08900
C111        C  0.02141438  0.91031344  0.07455735     0.00700
C112        C  0.99711856  0.93100245  0.07438285     0.00600
C113        C  0.47458869  0.92621244  0.09795777    -0.12400
C114        C  0.47630843  0.90180590  0.12176731     0.01000
C115        C  0.04471425  0.91248950  0.05015489     0.40400
C116        C  0.45266299  0.89756103  0.14546179     0.37000
C117        C  0.01106203  0.89564417  0.19063866     0.36700
C118        C  0.50710512  0.76366499  0.14448881     0.37500
N119        N  0.06340719  0.91416337  0.03064322    -0.43300
N120        N  0.43376010  0.89415997  0.16450625    -0.43800
N121        N  0.50568157  0.73743504  0.13374667    -0.41100
N122        N  0.01210622  0.92238402  0.20017659    -0.42600
H123        H  0.01934064  0.84224177  0.22511397     0.13600
H124        H  0.49934009  0.81709136  0.11019743     0.10100
H125        H  0.04161444  0.87022142  0.09809254     0.11100
H126        H  0.45578382  0.94172991  0.09798649     0.17000
C127        C  0.98935813  0.87396357  0.41414375    -0.01300
C128        C  0.50142007  0.88191855  0.38294020     0.07300
C129        C  0.51568388  0.91243216  0.37849293    -0.07200
C130        C  0.51815594  0.93459513  0.40425891     0.04800
C131        C  0.50403494  0.92763367  0.43444180    -0.14400
C132        C  0.98993954  0.89724582  0.43921276    -0.07800
C133        C  0.49936227  0.85907012  0.35467445     0.05700
C134        C  0.47255339  0.84438499  0.34776137    -0.08900
C135        C  0.47026108  0.82124102  0.32265446     0.00700
C136        C  0.49464357  0.81461214  0.30201589     0.00600
C137        C  0.02087307  0.83106292  0.30768355    -0.12400
C138        C  0.02377974  0.85178689  0.33439802     0.01000
C139        C  0.44347424  0.80290090  0.32054479     0.40400
C140        C  0.05252612  0.86329849  0.34153002     0.37000
C141        C  0.97692755  0.84194766  0.42140476     0.36700
C142        C  0.53458248  0.96466457  0.39883466     0.37500
N143        N  0.42195070  0.78821516  0.31919142    -0.43300
N144        N  0.07559908  0.87230484  0.34726701    -0.43800
N145        N  0.54802096  0.98857823  0.39458401    -0.41100
N146        N  0.96703677  0.81627563  0.42728748    -0.42600
H147        H  0.97952748  0.89164608  0.46268647     0.13600
H148        H  0.52482427  0.91914629  0.35472179     0.10100
H149        H  0.45349673  0.85008613  0.36278861     0.11100
H150        H  0.03976889  0.82657317  0.29199365     0.17000
C151        C  0.16536325  0.86018670  0.22326444    -0.01300
C152        C  0.14144320  0.85718132  0.24554810     0.07300
C153        C  0.13944896  0.87872169  0.27225444    -0.07200
C154        C  0.16009855  0.90386472  0.27615562     0.04800
C155        C  0.18301369  0.90814070  0.25275039    -0.14400
C156        C  0.18557393  0.88583108  0.22669501    -0.07800
C157        C  0.11744799  0.83304881  0.24065313     0.05700
C158        C  0.11165476  0.80817434  0.26349685    -0.08900
C159        C  0.08747591  0.78707572  0.26105961     0.00700
C160        C  0.06715236  0.79210589  0.23653251     0.00600
C161        C  0.07652728  0.81303831  0.21076416    -0.12400
C162        C  0.10008418  0.83466603  0.21349338     0.01000
C163        C  0.08637395  0.75848767  0.28170020     0.40400
C164        C  0.10479023  0.85965269  0.18893817     0.37000
C165        C  0.16987532  0.83690577  0.19706199     0.36700
C166        C  0.15745663  0.92493930  0.30437601     0.37500
N167        N  0.08581803  0.73553970  0.29821815    -0.43300
N168        N  0.10833446  0.87978251  0.16935862    -0.43800
N169        N  0.15544472  0.94185433  0.32699417    -0.41100
N170        N  0.17354721  0.81816132  0.17614465    -0.42600
H171        H  0.20346156  0.88850497  0.20899035     0.13600
H172        H  0.12139184  0.87625628  0.28976633     0.10100
H173        H  0.12625807  0.80503433  0.28314368     0.11100
H174        H  0.06575840  0.81358172  0.18822589     0.17000
C175        C  0.37030192  0.88886046  0.27592714    -0.01300
C176        C  0.37970687  0.87513821  0.24579865     0.07300
C177        C  0.36516518  0.88302267  0.21768909    -0.07200
C178        C  0.34202596  0.90490836  0.21918905     0.04800
C179        C  0.33313801  0.91921941  0.24918115    -0.14400
C180        C  0.34728365  0.91083162  0.27736951    -0.07800
C181        C  0.40497455  0.85297681  0.24339384     0.05700
C182        C  0.40061266  0.81932615  0.23773451    -0.08900
C183        C  0.42360515  0.79730287  0.23886827     0.00700
C184        C  0.45153777  0.80879673  0.24643273     0.00600
C185        C  0.45602128  0.84291332  0.24983693    -0.12400
C186        C  0.43319197  0.86486439  0.24826381     0.01000
C187        C  0.41749316  0.76298786  0.23336077     0.40400
C188        C  0.43920362  0.89956791  0.25171324     0.37000
C189        C  0.38376959  0.88034909  0.30570773     0.36700
C190        C  0.32786834  0.91277117  0.18969205     0.37500
N191        N  0.41211430  0.73565215  0.22838638    -0.43300
N192        N  0.44400903  0.92739994  0.25430130    -0.43800
N193        N  0.31642480  0.91920710  0.16613534    -0.41100
N194        N  0.39460001  0.87340489  0.32951089    -0.42600
H195        H  0.34031935  0.92153317  0.30050734     0.13600
H196        H  0.37217859  0.87243425  0.19451930     0.10100
H197        H  0.37900961  0.81012558  0.23333576     0.11100
H198        H  0.47731516  0.85264775  0.25445820     0.17000
C199        C  0.46230997  0.18239693  0.14117528    -0.01300
C200        C  0.48272267  0.15937430  0.12985999     0.07300
C201        C  0.50942803  0.15812253  0.14422496    -0.07200
C202        C  0.51577674  0.17790979  0.17062566     0.04800
C203        C  0.49451084  0.19915755  0.18423090    -0.14400
C204        C  0.46833392  0.20211773  0.16820386    -0.07800
C205        C  0.47769789  0.13537136  0.10356198     0.05700
C206        C  0.99775721  0.13526959  0.07711187    -0.08900
C207        C  0.00069439  0.10777398  0.05708070     0.00700
C208        C  0.48239350  0.08009986  0.06252245     0.00600
C209        C  0.46048866  0.08131450  0.08713042    -0.12400
C210        C  0.45841179  0.10843290  0.10814683     0.01000
C211        C  0.02342145  0.10832188  0.03193511     0.40400
C212        C  0.43814706  0.10679502  0.13576149     0.37000
C213        C  0.93536840  0.18627776  0.12536999     0.36700
C214        C  0.54412895  0.17390353  0.18289507     0.37500
N215        N  0.04190064  0.10873480  0.01211469    -0.43300
N216        N  0.42194225  0.10545266  0.15791613    -0.43800
N217        N  0.56758533  0.16918446  0.19001187    -0.41100
N218        N  0.91380956  0.18942706  0.11257792    -0.42600
H219        H  0.45227702  0.21931969  0.17729698     0.13600
H220        H  0.52538034  0.14074447  0.13506601     0.10100
H221        H  0.01275273  0.15584323  0.07371508     0.11100
H222        H  0.44620063  0.06024302  0.09122654     0.17000
C223        C  0.48259035  0.15170638  0.33868838    -0.01300
C224        C  0.00537514  0.14667218  0.35958465     0.07300
C225        C  0.03017454  0.16712169  0.35675888    -0.07200
C226        C  0.03266748  0.19163782  0.33281822     0.04800
C227        C  0.01064627  0.19487767  0.31040983    -0.14400
C228        C  0.48550335  0.17529595  0.31444064    -0.07800
C229        C  0.00313096  0.12024721  0.38439456     0.05700
C230        C  0.49728207  0.08781209  0.37432693    -0.08900
C231        C  0.49239612  0.06265554  0.39705468     0.00700
C232        C  0.99441749  0.06962633  0.43037414     0.00600
C233        C  0.00052899  0.10180276  0.44047013    -0.12400
C234        C  0.00462822  0.12715580  0.41789009     0.01000
C235        C  0.48536188  0.03004646  0.38566689     0.40400
C236        C  0.00948347  0.16009735  0.42978013     0.37000
C237        C  0.45573201  0.13320111  0.34181078     0.36700
C238        C  0.05752141  0.21347794  0.33214983     0.37500
N239        N  0.47941849  0.00404855  0.37637447    -0.43300
N240        N  0.01340484  0.18648768  0.43933377    -0.43800
N241        N  0.07738599  0.23109923  0.33175387    -0.41100
N242        N  0.43432621  0.11821664  0.34439138    -0.42600
H243        H  0.46796913  0.17781025  0.29824897     0.13600
H244        H  0.04759836  0.16386768  0.37318484     0.10100
H245        H  0.49608308  0.08227430  0.34860739     0.11100
H246        H  0.00188172  0.10714939  0.46616727     0.17000
C247        C  0.39687680  0.19397021  0.25071019    -0.01300
C248        C  0.39690897  0.15996101  0.24424570     0.07300
C249        C  0.42314669  0.14457099  0.23683016    -0.07200
C250        C  0.44924083  0.16231980  0.23580306     0.04800
C251        C  0.44935643  0.19673767  0.24111812    -0.14400
C252        C  0.42301650  0.21201056  0.24921254    -0.07800
C253        C  0.37031973  0.13908449  0.24629469     0.05700
C254        C  0.35951642  0.12609528  0.21750345    -0.08900
C255        C  0.33737734  0.10220042  0.21850051     0.00700
C256        C  0.32603420  0.09057255  0.24873632     0.00600
C257        C  0.33618158  0.10432887  0.27751295    -0.12400
C258        C  0.35808597  0.12851465  0.27650682     0.01000
C259        C  0.32735510  0.08902645  0.18829029     0.40400
C260        C  0.36838159  0.14128723  0.30674640     0.37000
C261        C  0.37036484  0.21075142  0.25898909     0.36700
C262        C  0.47543917  0.14382404  0.23158222     0.37500
N263        N  0.31940151  0.07834038  0.16408412    -0.43300
N264        N  0.37645176  0.15169602  0.33101067    -0.43800
N265        N  0.49592639  0.12809837  0.22814668    -0.41100
N266        N  0.34913040  0.22424013  0.26571190    -0.42600
H267        H  0.42286097  0.23802950  0.25463957     0.13600
H268        H  0.42328293  0.11822624  0.23279609     0.10100
H269        H  0.36901072  0.13397719  0.19423469     0.11100
H270        H  0.32735686  0.09561922  0.30078992     0.17000
C271        C  0.07709022  0.13793300  0.26728427    -0.01300
C272        C  0.10580332  0.14854345  0.26064127     0.07300
C273        C  0.11117530  0.18131785  0.25165783    -0.07200
C274        C  0.08851533  0.20365957  0.24981020     0.04800
C275        C  0.05973775  0.19348521  0.25788800    -0.14400
C276        C  0.05454240  0.16022033  0.26577132    -0.07800
C277        C  0.13023035  0.12527189  0.26060207     0.05700
C278        C  0.14437793  0.11726525  0.23086580    -0.08900
C279        C  0.16687036  0.09464525  0.22947806     0.00700
C280        C  0.17555025  0.07962494  0.25820126     0.00600
C281        C  0.16169430  0.08789519  0.28802673    -0.12400
C282        C  0.13923194  0.11063211  0.28945424     0.01000
C283        C  0.18062183  0.08690431  0.19833981     0.40400
C284        C  0.12610122  0.11905626  0.32076520     0.37000
C285        C  0.07004863  0.10396820  0.27428716     0.36700
C286        C  0.09560031  0.23597092  0.23754544     0.37500
N287        N  0.19166227  0.08060140  0.17340177    -0.43300
N288        N  0.11558004  0.12584720  0.34584913    -0.43800
N289        N  0.10236028  0.26127220  0.22679227    -0.41100
N290        N  0.06430892  0.07675166  0.27980406    -0.42600
H291        H  0.03263379  0.15127483  0.27019542     0.13600
H292        H  0.13316532  0.18928960  0.24540365     0.10100
H293        H  0.13757060  0.12845470  0.20863719     0.11100
H294        H  0.16856512  0.07666046  0.31019961     0.17000
C295        C  0.04134414  0.32741644  0.16655854    -0.01300
C296        C  0.01536644  0.34267329  0.15864132     0.07300
C297        C  0.48987040  0.33390292  0.17611896    -0.07200
C298        C  0.48961342  0.31026876  0.20066118     0.04800
C299        C  0.01577450  0.29564785  0.20969149    -0.14400
C300        C  0.04138538  0.30446109  0.19208228    -0.07800
C301        C  0.01333850  0.36623205  0.13105937     0.05700
C302        C  0.49366337  0.35916242  0.10672345    -0.08900
C303        C  0.48860560  0.38182219  0.08212863     0.00700
C304        C  0.00408518  0.41194577  0.08082622     0.00600
C305        C  0.02418998  0.41878272  0.10473416    -0.12400
C306        C  0.02841798  0.39666622  0.13008275     0.01000
C307        C  0.46623465  0.37443388  0.05968276     0.40400
C308        C  0.04668102  0.40686383  0.15597183     0.37000
C309        C  0.06782283  0.33350405  0.14766706     0.36700
C310        C  0.46155933  0.29984721  0.21368929     0.37500
N311        N  0.44818801  0.36860102  0.04181357    -0.43300
N312        N  0.06120434  0.41523457  0.17677019    -0.43800
N313        N  0.43866971  0.29194694  0.22327235    -0.41100
N314        N  0.08897700  0.33843563  0.13237998    -0.42600
H315        H  0.06137471  0.29279763  0.19769879     0.13600
H316        H  0.46968507  0.34487837  0.16972158     0.10100
H317        H  0.48149707  0.33617929  0.10755944     0.11100
H318        H  0.03575572  0.44216015  0.10430516     0.17000
C319        C  0.46653496  0.33280577  0.32045483    -0.01300
C320        C  0.49182494  0.34722593  0.33289684     0.07300
C321        C  0.01875944  0.33630034  0.32094176    -0.07200
C322        C  0.02098884  0.31216048  0.29682433     0.04800
C323        C  0.49578922  0.29765154  0.28426129    -0.14400
C324        C  0.46873205  0.30791767  0.29674711    -0.07800
C325        C  0.49115223  0.37253101  0.35934934     0.05700
C326        C  0.47522770  0.36618323  0.38852433    -0.08900
C327        C  0.47497300  0.38880839  0.41429207     0.00700
C328        C  0.49210211  0.41778753  0.41193460     0.00600
C329        C  0.00863149  0.42374027  0.38309078    -0.12400
C330        C  0.00763410  0.40203221  0.35665603     0.01000
C331        C  0.45625162  0.38219717  0.44249830     0.40400
C332        C  0.02287580  0.41124898  0.32664387     0.37000
C333        C  0.43811370  0.34324813  0.33134662     0.36700
C334        C  0.04964435  0.30153577  0.28738492     0.37500
N335        N  0.44115015  0.37699075  0.46505416    -0.43300
N336        N  0.03498661  0.41867873  0.30255758    -0.43800
N337        N  0.07304874  0.29379275  0.28072699    -0.41100
N338        N  0.41532482  0.35155303  0.34018291    -0.42600
H339        H  0.44924268  0.29637221  0.28808548     0.13600
H340        H  0.03832481  0.34620435  0.33112028     0.10100
H341        H  0.46286144  0.34346114  0.39122104     0.11100
H342        H  0.02178640  0.44595983  0.38091713     0.17000
C343        C  0.01386363  0.66970922  0.17272096    -0.01300
C344        C  0.49007806  0.64757117  0.17274332     0.07300
C345        C  0.46851255  0.65010608  0.19780019    -0.07200
C346        C  0.46978051  0.67519855  0.22145183     0.04800
C347        C  0.49240867  0.69873307  0.21967181    -0.14400
C348        C  0.01471439  0.69499868  0.19585185    -0.07800
C349        C  0.48739425  0.62245967  0.14625350     0.05700
C350        C  0.00875413  0.59854880  0.14190857    -0.08900
C351        C  0.00874326  0.57682092  0.11533465     0.00700
C352        C  0.48681967  0.57839495  0.09247006     0.00600
C353        C  0.46513169  0.60186183  0.09711727    -0.12400
C354        C  0.46525929  0.62375858  0.12365473     0.01000
C355        C  0.03181761  0.55349257  0.11166210     0.40400
C356        C  0.44301399  0.64811691  0.12654190     0.37000
C357        C  0.03708209  0.66796115  0.14824994     0.36700
C358        C  0.44836415  0.67581427  0.24788196     0.37500
N359        N  0.05019194  0.53465731  0.10871851    -0.43300
N360        N  0.42516918  0.66764367  0.12886883    -0.43800
N361        N  0.43152287  0.67617945  0.26945443    -0.41100
N362        N  0.05569486  0.66646880  0.12867077    -0.42600
H363        H  0.03264017  0.71248028  0.19482076     0.13600
H364        H  0.45065945  0.63254372  0.19879295     0.10100
H365        H  0.02588368  0.59732960  0.15902912     0.11100
H366        H  0.44812008  0.60314424  0.07986254     0.17000
C367        C  0.47549773  0.62163086  0.37881204    -0.01300
C368        C  0.00349767  0.62782097  0.36503441     0.07300
C369        C  0.02723516  0.61311902  0.37886151    -0.07200
C370        C  0.02334595  0.59234409  0.40589555     0.04800
C371        C  0.99536454  0.58631483  0.41979289    -0.14400
C372        C  0.47164753  0.60116248  0.40603936    -0.07800
C373        C  0.00848495  0.65328266  0.33948608     0.05700
C374        C  0.50641590  0.68593052  0.34917873    -0.08900
C375        C  0.00853472  0.71152292  0.32670037     0.00700
C376        C  0.01247840  0.70486831  0.29273600     0.00600
C377        C  0.01677526  0.67176793  0.28348938    -0.12400
C378        C  0.01451507  0.64611907  0.30640907     0.01000
C379        C  0.50638108  0.74379671  0.34081214     0.40400
C380        C  0.01760555  0.61267015  0.29533674     0.37000
C381        C  0.45039237  0.63574711  0.36500737     0.36700
C382        C  0.04831101  0.57722613  0.41895504     0.37500
N383        N  0.50537501  0.76843899  0.35483302    -0.43300
N384        N  0.02005519  0.58586309  0.28635142    -0.43800
N385        N  0.06826235  0.56506932  0.42953696    -0.41100
N386        N  0.43033398  0.64700524  0.35375734    -0.44500
H387        H  0.45003756  0.59599902  0.41608384     0.13600
H388        H  0.04884365  0.61828208  0.36881334     0.10100
H389        H  0.50260200  0.69143763  0.37483796     0.11100
H390        H  0.02185557  0.66554452  0.25839154     0.17000
N391        N  0.48604504  0.54962882  0.50454165    -0.35800
N392        N  0.98975046  0.50125750  0.95178544    -0.56400
N393        N  0.99284746  0.44878976  0.99818345    -0.35800
N394        N  0.99108916  0.49664888  0.55063509    -0.56400
C395        C  0.49251770  0.56933756  0.97873980     0.27700
C396        C  0.49096614  0.56678816  0.53213500     0.27700
C397        C  0.00022621  0.43320797  0.97003603     0.27700
C398        C  0.00359066  0.43108592  0.52271677     0.27700
C399        C  0.48361700  0.52850388  0.93499231     0.36400
C400        C  0.98430565  0.47542984  0.93207606     0.36400
C401        C  0.48249420  0.52096850  0.57111478     0.36400
C402        C  0.98824365  0.46837898  0.56763025     0.36400
C403        C  0.50148785  0.59977920  0.99011295    -0.21100
C404        C  0.50067384  0.59817823  0.52393894    -0.21100
C405        C  0.01567403  0.40532928  0.97668090    -0.21100
C406        C  0.01803011  0.40403414  0.51001210    -0.21100
C407        C  0.47424586  0.51996934  0.90448367    -0.22200
C408        C  0.97413216  0.48633894  0.90288005    -0.22200
C409        C  0.47371693  0.50801649  0.60108684    -0.22200
C410        C  0.97740700  0.47468421  0.59889221    -0.22200
C411        C  0.48952309  0.56087321  0.94548258    -0.17500
C412        C  0.48616088  0.55483884  0.56436162    -0.17500
C413        C  0.99823351  0.43762031  0.55625095    -0.17500
C414        C  0.99159462  0.44264737  0.93888052    -0.17500
H415        H  0.50814586  0.62096555  0.97572413     0.15400
H416        H  0.50627823  0.61783208  0.54041828     0.15400
H417        H  0.02425791  0.38756202  0.95935547     0.15400
H418        H  0.02836524  0.38500321  0.52338967     0.15400
H419        H  0.46839997  0.53619779  0.88517983     0.13700
H420        H  0.96812486  0.47174762  0.88212238     0.13700
H421        H  0.46636914  0.52133689  0.62260933     0.13700
H422        H  0.97327413  0.45719432  0.61832077     0.13700
H423        H  0.47597630  0.52667383  0.50337057     0.26900
H424        H  0.97843348  0.46806998  0.00066950     0.26900
C425        C  0.48613333  0.23506194  0.77155145     0.46200
H426        H  0.46889265  0.23597929  0.79112714    -0.02800
C427        C  0.02599435  0.23381527  0.72530532     0.46300
H428        H  0.04314006  0.23386065  0.70570876    -0.02800
C429        C  0.01280807  0.21674346  0.78129142    -0.16500
C430        C  0.47677920  0.21676905  0.74056183    -0.16300
C431        C  0.49748644  0.26911787  0.76129979    -0.16600
C432        C  0.03448554  0.21609122  0.75711228    -0.16600
C433        C  0.49797927  0.21623190  0.71596994    -0.16200
C434        C  0.01622730  0.26877352  0.73470492    -0.16500
N435        N  0.29885685  0.00273753  0.75323150    -0.35800
N436        N  0.25657367  0.94898378  0.75394300    -0.56400
N437        N  0.20994523  0.99629956  0.75834068    -0.35800
N438        N  0.25229973  0.05010821  0.75463702    -0.56400
C439        C  0.31643302  0.97706051  0.74671376     0.27700
C440        C  0.31418484  0.03059666  0.74619021     0.27700
C441        C  0.19490493  0.96845528  0.75156035     0.27700
C442        C  0.19254345  0.02196044  0.75297143     0.27700
C443        C  0.28075571  0.93142949  0.75763983     0.36400
C444        C  0.23393688  0.92803212  0.75924975     0.36400
C445        C  0.27494741  0.07132053  0.75655233     0.36400
C446        C  0.22813936  0.06785973  0.76006457     0.36400
C447        C  0.34342678  0.98876110  0.73595319    -0.21100
C448        C  0.34204255  0.02245102  0.73569099    -0.21100
C449        C  0.16754049  0.97659871  0.74203000    -0.21100
C450        C  0.16597783  0.01028043  0.74318149    -0.21100
C451        C  0.27345087  0.89915850  0.76521164    -0.22200
C452        C  0.24380561  0.89702898  0.76634501    -0.22200
C453        C  0.26508325  0.10277618  0.76277493    -0.22200
C454        C  0.23546138  0.10056549  0.76509682    -0.22200
C455        C  0.30931905  0.94342511  0.75172253    -0.17500
C456        C  0.30429769  0.06320665  0.75054498    -0.17500
C457        C  0.19954178  0.05559198  0.75774037    -0.17500
C458        C  0.20461270  0.93583932  0.75529352    -0.17500
H459        H  0.36231111  0.97453934  0.72925734     0.15400
H460        H  0.35973127  0.03900479  0.72879982     0.15400
H461        H  0.15033378  0.95999207  0.73518768     0.15400
H462        H  0.14738611  0.02453406  0.73732545     0.15400
H463        H  0.28796500  0.87910918  0.76902520     0.13700
H464        H  0.23100525  0.87502398  0.77133904     0.13700
H465        H  0.27783822  0.12512160  0.76489904     0.13700
H466        H  0.22096448  0.12086852  0.76926941     0.13700
H467        H  0.27861282  0.00141678  0.76501672     0.26900
H468        H  0.22974747  0.99761367  0.76929943     0.26900
C469        C  0.02162621  0.76657101  0.77187252     0.46200
H470        H  0.03537531  0.76896063  0.79287554    -0.02800
C471        C  0.48710976  0.76214167  0.72451633     0.46300
H472        H  0.47234600  0.75975255  0.70401367    -0.02800
C473        C  0.49501783  0.78868843  0.77623506    -0.16500
C474        C  0.03650911  0.77734409  0.73879227    -0.16300
C475        C  0.00977914  0.73145478  0.76735690    -0.16600
C476        C  0.47609604  0.78583800  0.75141956    -0.16600
C477        C  0.01665784  0.77724324  0.71417748    -0.16200
C478        C  0.49310663  0.72880997  0.74050065    -0.16500
O479        O  0.01853625  0.97134720  0.53872571    -0.72200
O480        O  0.01723323  0.03659323  0.96764628    -0.73200
O481        O  0.01181900  0.04042830  0.53494553    -0.61800
O482        O  0.02297772  0.96790323  0.97014690    -0.70200
O483        O  0.47532471  0.96044993  0.97024401    -0.69700
O484        O  0.46417727  0.03452636  0.53299716    -0.61000
O485        O  0.46970578  0.02969182  0.96448466    -0.73500
O486        O  0.47090618  0.96494643  0.53890429    -0.72300
Cu487      Cu  0.01936753  0.00414689  0.50308378     1.04600
Cu488      Cu  0.46841397  0.99704778  0.50168771     1.04300
C489        C  0.49540097  0.95721507  0.54972489     0.94000
C490        C  0.49350877  0.04374605  0.95505356     0.93200
C491        C  0.48633806  0.05006469  0.54279243     0.85300
C492        C  0.50069337  0.95298705  0.95975093     0.91600
C493        C  0.01004643  0.86237544  0.67885540    -0.01300
C494        C  0.00432624  0.85537099  0.64620506     0.07300
C495        C  0.50387467  0.82265609  0.63549774    -0.07200
C496        C  0.50871739  0.79689612  0.65688826     0.04800
C497        C  0.01479757  0.80376827  0.68954171    -0.14400
C498        C  0.01507266  0.83667361  0.70018245    -0.07800
C499        C  0.00119648  0.88176998  0.62206095     0.05700
C500        C  0.02348517  0.88633346  0.59847889    -0.08900
C501        C  0.02193180  0.91063047  0.57485437     0.00700
C502        C  0.99749918  0.93110915  0.57448709     0.00600
C503        C  0.47487883  0.92614784  0.59792045    -0.12400
C504        C  0.47662204  0.90176609  0.62175136     0.01000
C505        C  0.04536172  0.91297899  0.55062421     0.40400
C506        C  0.45288371  0.89733069  0.64529329     0.37000
C507        C  0.01144834  0.89570494  0.69081104     0.36700
C508        C  0.50723194  0.76378676  0.64452564     0.37500
N509        N  0.06416187  0.91478677  0.53125432    -0.43300
N510        N  0.43390618  0.89376815  0.66421477    -0.43800
N511        N  0.50569480  0.73757799  0.63375316    -0.41100
N512        N  0.01250218  0.92242919  0.70039015    -0.42600
H513        H  0.01961327  0.84224433  0.72524448     0.13600
H514        H  0.49968454  0.81727774  0.61026924     0.10100
H515        H  0.04224171  0.87070727  0.59854688     0.11100
H516        H  0.45597626  0.94150418  0.59781625     0.17000
C517        C  0.98916962  0.87400181  0.91409533    -0.01300
C518        C  0.50117192  0.88199122  0.88287509     0.07300
C519        C  0.51534322  0.91255298  0.87839952    -0.07200
C520        C  0.51779868  0.93472538  0.90415920     0.04800
C521        C  0.50374656  0.92771911  0.93436986    -0.14400
C522        C  0.98972962  0.89728820  0.93916440    -0.07800
C523        C  0.49916924  0.85911873  0.85462408     0.05700
C524        C  0.47238952  0.84436840  0.84769979    -0.08900
C525        C  0.47014844  0.82122830  0.82258089     0.00700
C526        C  0.49456489  0.81462007  0.80198979     0.00600
C527        C  0.02076816  0.83110918  0.80768380    -0.12400
C528        C  0.02361362  0.85188310  0.83436955     0.01000
C529        C  0.44338620  0.80285056  0.82041443     0.40400
C530        C  0.05232553  0.86352977  0.84147827     0.37000
C531        C  0.97683399  0.84194431  0.92137240     0.36700
C532        C  0.53415267  0.96483856  0.89870400     0.37500
N533        N  0.42188925  0.78812330  0.81900273    -0.43300
N534        N  0.07536917  0.87265825  0.84718965    -0.43800
N535        N  0.54753885  0.98878323  0.89441867    -0.41100
N536        N  0.96702327  0.81623778  0.92726909    -0.42600
H537        H  0.97936982  0.89165570  0.96265758     0.13600
H538        H  0.52443712  0.91928876  0.85461379     0.10100
H539        H  0.45331717  0.85002702  0.86271885     0.11100
H540        H  0.03968444  0.82663091  0.79202332     0.17000
C541        C  0.16538543  0.86029631  0.72360554    -0.01300
C542        C  0.14145545  0.85728638  0.74587825     0.07300
C543        C  0.13949290  0.87877209  0.77263267    -0.07200
C544        C  0.16017464  0.90387176  0.77658364     0.04800
C545        C  0.18307697  0.90817725  0.75316994    -0.14400
C546        C  0.18561498  0.88591451  0.72707489    -0.07800
C547        C  0.11746793  0.83313744  0.74098097     0.05700
C548        C  0.11160765  0.80835859  0.76391026    -0.08900
C549        C  0.08745745  0.78722064  0.76145736     0.00700
C550        C  0.06723366  0.79209717  0.73679113     0.00600
C551        C  0.07670131  0.81290786  0.71096353    -0.12400
C552        C  0.10019878  0.83461318  0.71373016     0.01000
C553        C  0.08630767  0.75874531  0.78224775     0.40400
C554        C  0.10491322  0.85954613  0.68912283     0.37000
C555        C  0.16990715  0.83702654  0.69739470     0.36700
C556        C  0.15759541  0.92485549  0.80487543     0.37500
N557        N  0.08572064  0.73589436  0.79889772    -0.43300
N558        N  0.10845085  0.87963480  0.66950047    -0.43800
N559        N  0.15564360  0.94168836  0.82755845    -0.41100
N560        N  0.17358437  0.81828848  0.67647271    -0.42600
H561        H  0.20350236  0.88860197  0.70937159     0.13600
H562        H  0.12144662  0.87628603  0.79015573     0.10100
H563        H  0.12613991  0.80532350  0.78364229     0.11100
H564        H  0.06603082  0.81330785  0.68835487     0.17000
C565        C  0.37050954  0.88902379  0.77599511    -0.01300
C566        C  0.37978523  0.87518501  0.74586985     0.07300
C567        C  0.36509868  0.88293473  0.71782396    -0.07200
C568        C  0.34194892  0.90480260  0.71937224     0.04800
C569        C  0.33318100  0.91922088  0.74935311    -0.14400
C570        C  0.34746730  0.91096581  0.77748699    -0.07800
C571        C  0.40505469  0.85302621  0.74339089     0.05700
C572        C  0.40068816  0.81938504  0.73766537    -0.08900
C573        C  0.42368261  0.79735689  0.73872862     0.00700
C574        C  0.45161692  0.80883623  0.74629359     0.00600
C575        C  0.45611388  0.84294756  0.74971621    -0.12400
C576        C  0.43328486  0.86490530  0.74820974     0.01000
C577        C  0.41757624  0.76304984  0.73315819     0.40400
C578        C  0.43931179  0.89960375  0.75167946     0.37000
C579        C  0.38414346  0.88067678  0.80572136     0.36700
C580        C  0.32767317  0.91256173  0.68992473     0.37500
N581        N  0.41221394  0.73571883  0.72813502    -0.43300
N582        N  0.44413084  0.92743081  0.75428926    -0.43800
N583        N  0.31614029  0.91892333  0.66640640    -0.41100
N584        N  0.39511493  0.87387356  0.82947833    -0.42600
H585        H  0.34060441  0.92176035  0.80061683     0.13600
H586        H  0.37201560  0.87226494  0.69465772     0.10100
H587        H  0.37908035  0.81019291  0.73327854     0.11100
H588        H  0.47741582  0.85266782  0.75432275     0.17000
C589        C  0.46266717  0.18273964  0.64072572    -0.01300
C590        C  0.48301083  0.15957693  0.62955223     0.07300
C591        C  0.50963742  0.15817286  0.64407683    -0.07200
C592        C  0.51595419  0.17794034  0.67050477     0.04800
C593        C  0.49471577  0.19928802  0.68399479    -0.14400
C594        C  0.46863969  0.20240685  0.66780758    -0.07800
C595        C  0.47798770  0.13558660  0.60324089     0.05700
C596        C  0.99815722  0.13534064  0.57690074    -0.08900
C597        C  0.00104962  0.10781076  0.55691010     0.00700
C598        C  0.48262798  0.08022798  0.56230926     0.00600
C599        C  0.46060814  0.08160870  0.58677755    -0.12400
C600        C  0.45854318  0.10877872  0.60773109     0.01000
C601        C  0.02383579  0.10823850  0.53183065     0.40400
C602        C  0.43809790  0.10732756  0.63518827     0.37000
C603        C  0.93585727  0.18683009  0.62470932     0.36700
C604        C  0.54423296  0.17380941  0.68293063     0.37500
N605        N  0.04234598  0.10854696  0.51204636    -0.43300
N606        N  0.42173961  0.10613850  0.65720954    -0.43800
N607        N  0.56763554  0.16898267  0.69017600    -0.41100
N608        N  0.91441032  0.19015537  0.61173902    -0.42600
H609        H  0.45261760  0.21968950  0.67681920     0.13600
H610        H  0.52554890  0.14070004  0.63501809     0.10100
H611        H  0.01325332  0.15582779  0.57355785     0.11100
H612        H  0.44620796  0.06062560  0.59082248     0.17000
C613        C  0.48233359  0.15151694  0.83840241    -0.01300
C614        C  0.00504661  0.14654750  0.85942095     0.07300
C615        C  0.02981378  0.16706170  0.85670497    -0.07200
C616        C  0.03232914  0.19160559  0.83280503     0.04800
C617        C  0.01040905  0.19475811  0.81027234    -0.14400
C618        C  0.48530107  0.17510005  0.81415140    -0.07800
C619        C  0.00275881  0.12017330  0.88428847     0.05700
C620        C  0.49680175  0.08773061  0.87431487    -0.08900
C621        C  0.49195210  0.06263197  0.89711205     0.00700
C622        C  0.99417387  0.06965069  0.93039604     0.00600
C623        C  0.00038973  0.10182818  0.94039953    -0.12400
C624        C  0.00441137  0.12713627  0.91776090     0.01000
C625        C  0.48474983  0.03002820  0.88583705     0.40400
C626        C  0.00934227  0.16009288  0.92957534     0.37000
C627        C  0.45549175  0.13297044  0.84140845     0.36700
C628        C  0.05706953  0.21360856  0.83233421     0.37500
N629        N  0.47866552  0.00403143  0.87665475    -0.43300
N630        N  0.01332915  0.18650037  0.93904926    -0.43800
N631        N  0.07682164  0.23138804  0.83210937    -0.41100
N632        N  0.43410474  0.11794156  0.84389965    -0.42600
H633        H  0.46784096  0.17756663  0.79784799     0.13600
H634        H  0.04718599  0.16386281  0.87320984     0.10100
H635        H  0.49550380  0.08213499  0.84861811     0.11100
H636        H  0.00185717  0.10721760  0.96607266     0.17000
C637        C  0.39688543  0.19399579  0.75019661    -0.01300
C638        C  0.39691707  0.16001509  0.74358141     0.07300
C639        C  0.42315753  0.14464508  0.73612901    -0.07200
C640        C  0.44925654  0.16238272  0.73524356     0.04800
C641        C  0.44936823  0.19678237  0.74066674    -0.14400
C642        C  0.42302292  0.21203669  0.74876968    -0.07800
C643        C  0.37034802  0.13911120  0.74569963     0.05700
C644        C  0.35941317  0.12619528  0.71694258    -0.08900
C645        C  0.33727813  0.10229036  0.71801184     0.00700
C646        C  0.32611137  0.09055044  0.74827821     0.00600
C647        C  0.33639374  0.10422939  0.77702173    -0.12400
C648        C  0.35825856  0.12845534  0.77594699     0.01000
C649        C  0.32702538  0.08927946  0.68784148     0.40400
C650        C  0.36862212  0.14124231  0.80614838     0.37000
C651        C  0.37038852  0.21072804  0.75866475     0.36700
C652        C  0.47546332  0.14387826  0.73117236     0.37500
N653        N  0.31886333  0.07874651  0.66366656    -0.43300
N654        N  0.37673350  0.15169485  0.83037563    -0.43800
N655        N  0.49596748  0.12815772  0.72789028    -0.41100
N656        N  0.34917114  0.22417365  0.76556847    -0.42600
H657        H  0.42286684  0.23802819  0.75432111     0.13600
H658        H  0.42329809  0.11830988  0.73203321     0.10100
H659        H  0.36877973  0.13416412  0.69364372     0.11100
H660        H  0.32767812  0.09545944  0.80032342     0.17000
C661        C  0.07708255  0.13789621  0.76751942    -0.01300
C662        C  0.10579674  0.14851601  0.76089094     0.07300
C663        C  0.11115460  0.18128435  0.75187016    -0.07200
C664        C  0.08848508  0.20360631  0.74996021     0.04800
C665        C  0.05970135  0.19341735  0.75798693    -0.14400
C666        C  0.05452091  0.16015666  0.76590945    -0.07800
C667        C  0.13023679  0.12525257  0.76083349     0.05700
C668        C  0.14444534  0.11736978  0.73109650    -0.08900
C669        C  0.16695924  0.09477837  0.72967136     0.00700
C670        C  0.17561317  0.07967115  0.75835934     0.00600
C671        C  0.16169450  0.08780763  0.78818679    -0.12400
C672        C  0.13920148  0.11050726  0.78965199     0.01000
C673        C  0.18074529  0.08713759  0.69852624     0.40400
C674        C  0.12599776  0.11877099  0.82096927     0.37000
C675        C  0.07005073  0.10394562  0.77460397     0.36700
C676        C  0.09557086  0.23590881  0.73767228     0.37500
N677        N  0.19181158  0.08091231  0.67358203    -0.43300
N678        N  0.11541549  0.12541935  0.84606127    -0.43800
N679        N  0.10233019  0.26120030  0.72689604    -0.41100
N680        N  0.06431794  0.07674410  0.78020362    -0.42600
H681        H  0.03261239  0.15118235  0.77026834     0.13600
H682        H  0.13314465  0.18926586  0.74562877     0.10100
H683        H  0.13766325  0.12862786  0.70889090     0.11100
H684        H  0.16853468  0.07649070  0.81033221     0.17000
C685        C  0.04133280  0.32725261  0.66645693    -0.01300
C686        C  0.01534836  0.34248271  0.65853917     0.07300
C687        C  0.48986706  0.33377236  0.67605942    -0.07200
C688        C  0.48963034  0.31022338  0.70067511     0.04800
C689        C  0.01580104  0.29560726  0.70969927    -0.14400
C690        C  0.04139675  0.30436376  0.69203107    -0.07800
C691        C  0.01332290  0.36603956  0.63097679     0.05700
C692        C  0.49373037  0.35893351  0.60656947    -0.08900
C693        C  0.48868272  0.38161246  0.58198932     0.00700
C694        C  0.00409301  0.41178721  0.58079265     0.00600
C695        C  0.02411066  0.41865310  0.60478337    -0.12400
C696        C  0.02831578  0.39652085  0.63011314     0.01000
C697        C  0.46639932  0.37417619  0.55944915     0.40400
C698        C  0.04645166  0.40674099  0.65610783     0.37000
C699        C  0.06779395  0.33331976  0.64752571     0.36700
C700        C  0.46157990  0.29992242  0.71380858     0.37500
N701        N  0.44841840  0.36828254  0.54151486    -0.43300
N702        N  0.06085981  0.41512683  0.67700280    -0.43800
N703        N  0.43868208  0.29214946  0.72347181    -0.41100
N704        N  0.08892967  0.33823451  0.63219994    -0.42600
H705        H  0.06139202  0.29271022  0.69764533     0.13600
H706        H  0.46968280  0.34475119  0.66966083     0.10100
H707        H  0.48162111  0.33591089  0.60734057     0.11100
H708        H  0.03562481  0.44206286  0.60443056     0.17000
C709        C  0.46634499  0.33247325  0.82061613    -0.01300
C710        C  0.49158809  0.34699669  0.83306596     0.07300
C711        C  0.01855947  0.33620691  0.82107135    -0.07200
C712        C  0.02086488  0.31213718  0.79688332     0.04800
C713        C  0.49570809  0.29753510  0.78430853    -0.14400
C714        C  0.46862174  0.30763854  0.79686147    -0.07800
C715        C  0.49082356  0.37232825  0.85950628     0.05700
C716        C  0.47484009  0.36599889  0.88865295    -0.08900
C717        C  0.47445764  0.38869082  0.91436986     0.00700
C718        C  0.49154058  0.41769966  0.91201226     0.00600
C719        C  0.00810601  0.42365503  0.88319688    -0.12400
C720        C  0.00722113  0.40189041  0.85679855     0.01000
C721        C  0.45563570  0.38214362  0.94251019     0.40400
C722        C  0.02248283  0.41111884  0.82680255     0.37000
C723        C  0.43788524  0.34276804  0.83152814     0.36700
C724        C  0.04955788  0.30169663  0.78735700     0.37500
N725        N  0.44044052  0.37701399  0.96500668    -0.43300
N726        N  0.03460957  0.41855882  0.80272902    -0.43800
N727        N  0.07298416  0.29409646  0.78060754    -0.41100
N728        N  0.41506616  0.35095462  0.84038210    -0.42600
H729        H  0.44916539  0.29601720  0.78820276     0.13600
H730        H  0.03809715  0.34618429  0.83124953     0.10100
H731        H  0.46251745  0.34324924  0.89136316     0.11100
H732        H  0.02120710  0.44591446  0.88101848     0.17000
C733        C  0.01381646  0.66971127  0.67266577    -0.01300
C734        C  0.49012315  0.64744260  0.67286284     0.07300
C735        C  0.46861298  0.64995840  0.69798290    -0.07200
C736        C  0.46985636  0.67513749  0.72154975     0.04800
C737        C  0.49243345  0.69873346  0.71965663    -0.14400
C738        C  0.01467613  0.69503571  0.69575569    -0.07800
C739        C  0.48746693  0.62225081  0.64644532     0.05700
C740        C  0.00891753  0.59844404  0.64208836    -0.08900
C741        C  0.00899054  0.57673326  0.61549717     0.00700
C742        C  0.48707874  0.57824109  0.59261666     0.00600
C743        C  0.46528621  0.60157754  0.59729393    -0.12400
C744        C  0.46531558  0.62343915  0.62386219     0.01000
C745        C  0.03214466  0.55350839  0.61181188     0.40400
C746        C  0.44295114  0.64765209  0.62680016     0.37000
C747        C  0.03689632  0.66808560  0.64801624     0.36700
C748        C  0.44842913  0.67583039  0.74796698     0.37500
N749        N  0.05059261  0.53476629  0.60886129    -0.43300
N750        N  0.42500828  0.66705898  0.62917949    -0.43800
N751        N  0.43156727  0.67628065  0.76951659    -0.41100
N752        N  0.05537534  0.66669849  0.62826705    -0.42600
H753        H  0.03254979  0.71258349  0.69461636     0.13600
H754        H  0.45080868  0.63233416  0.69907270     0.10100
H755        H  0.02606174  0.59731357  0.65919844     0.11100
H756        H  0.44827047  0.60278626  0.58003811     0.17000
C757        C  0.47502181  0.62126722  0.87833577    -0.01300
C758        C  0.00310084  0.62769024  0.86489657     0.07300
C759        C  0.02678828  0.61316848  0.87899959    -0.07200
C760        C  0.02277659  0.59235797  0.90599065     0.04800
C761        C  0.99471902  0.58615607  0.91960413    -0.14400
C762        C  0.47104876  0.60081603  0.90556224    -0.07800
C763        C  0.00817229  0.65320067  0.83941423     0.05700
C764        C  0.50594915  0.68582776  0.84913317    -0.08900
C765        C  0.00816467  0.71145303  0.82669600     0.00700
C766        C  0.01234002  0.70484760  0.79275074     0.00600
C767        C  0.01677716  0.67177857  0.78349166    -0.12400
C768        C  0.01444011  0.64609754  0.80637078     0.01000
C769        C  0.50588608  0.74370894  0.84082341     0.40400
C770        C  0.01770501  0.61267451  0.79529127     0.37000
C771        C  0.44996538  0.63509362  0.86415618     0.36700
C772        C  0.04769684  0.57735241  0.91927022     0.37500
N773        N  0.50477166  0.76833063  0.85487049    -0.43300
N774        N  0.02029593  0.58588458  0.78630804    -0.43800
N775        N  0.06761298  0.56527316  0.93001227    -0.41100
N776        N  0.42994747  0.64609804  0.85258930    -0.44500
H777        H  0.44938714  0.59550923  0.91537459     0.13600
H778        H  0.04844834  0.61848422  0.86918765     0.10100
H779        H  0.50195443  0.69129129  0.87477411     0.11100
H780        H  0.02202016  0.66561352  0.75841199     0.17000
N781        N  0.98546419  0.54964716  0.00444878    -0.35800
N782        N  0.49046902  0.50132695  0.45179136    -0.56400
N783        N  0.49321177  0.44876553  0.49813340    -0.35800
N784        N  0.49084411  0.49675840  0.05060051    -0.56400
C785        C  0.99316585  0.56936612  0.47889047     0.27700
C786        C  0.99047174  0.56685478  0.03199070     0.27700
C787        C  0.50070833  0.43322736  0.46999882     0.27700
C788        C  0.50337847  0.43118228  0.02273173     0.27700
C789        C  0.98438671  0.52861331  0.43503349     0.36400
C790        C  0.48502611  0.47554503  0.43202094     0.36400
C791        C  0.98221655  0.52107961  0.07106115     0.36400
C792        C  0.48815427  0.46851444  0.06766050     0.36400
C793        C  0.00210462  0.59978628  0.49034635    -0.21100
C794        C  0.00015268  0.59823150  0.02370755    -0.21100
C795        C  0.51608522  0.40530850  0.47668555    -0.21100
C796        C  0.51778892  0.40412857  0.00999033    -0.21100
C797        C  0.97506524  0.52015441  0.40448566    -0.22200
C798        C  0.47492078  0.48652761  0.40281833    -0.22200
C799        C  0.97356571  0.50814869  0.10108353    -0.22200
C800        C  0.47738705  0.47483442  0.09894589    -0.22200
C801        C  0.99024014  0.56096403  0.44561130    -0.17500
C802        C  0.98579762  0.55494988  0.06425153    -0.17500
C803        C  0.49816831  0.43776626  0.05628270    -0.17500
C804        C  0.49220726  0.44272537  0.43881335    -0.17500
H805        H  0.00879759  0.62099733  0.47601198     0.15400
H806        H  0.00581715  0.61791144  0.04012924     0.15400
H807        H  0.52472449  0.38755982  0.45937473     0.15400
H808        H  0.52821478  0.38514298  0.02333744     0.15400
H809        H  0.96925009  0.53643741  0.38521102     0.13700
H810        H  0.46890806  0.47198843  0.38202845     0.13700
H811        H  0.96623072  0.52147918  0.12260492     0.13700
H812        H  0.47337041  0.45736832  0.11841902     0.13700
H813        H  0.97540464  0.52667847  0.00336233     0.26900
H814        H  0.47881287  0.46806763  0.50056843     0.26900
C815        C  0.98621835  0.23513737  0.27173408     0.46200
H816        H  0.96904156  0.23610322  0.29137812    -0.02800
C817        C  0.52592003  0.23382251  0.22531785     0.46300
H818        H  0.54300285  0.23385751  0.20565294    -0.02800
C819        C  0.51295037  0.21686466  0.28140517    -0.16500
C820        C  0.97676319  0.21674834  0.24084013    -0.16300
C821        C  0.99749557  0.26917922  0.26132942    -0.16600
C822        C  0.53453987  0.21618413  0.25712300    -0.16600
C823        C  0.99787718  0.21617895  0.21615289    -0.16200
C824        C  0.51616641  0.26878894  0.23467858    -0.16500
N825        N  0.79879484  0.00271722  0.25329392    -0.35800
N826        N  0.75651814  0.94894786  0.25360722    -0.56400
N827        N  0.70988294  0.99624453  0.25806262    -0.35800
N828        N  0.75223440  0.05007554  0.25477915    -0.56400
C829        C  0.81639438  0.97707199  0.24672689     0.27700
C830        C  0.81414683  0.03061285  0.24648045     0.27700
C831        C  0.69486438  0.96841938  0.25116008     0.27700
C832        C  0.69249812  0.02192275  0.25270209     0.27700
C833        C  0.78069606  0.93138605  0.25730314     0.36400
C834        C  0.73388024  0.92797886  0.25883034     0.36400
C835        C  0.77486668  0.07128233  0.25688609     0.36400
C836        C  0.72805179  0.06779582  0.26017424     0.36400
C837        C  0.84342876  0.98882436  0.23617581    -0.21100
C838        C  0.84204741  0.02251465  0.23609362    -0.21100
C839        C  0.66753066  0.97658770  0.24155342    -0.21100
C840        C  0.66596479  0.01026832  0.24278279    -0.21100
C841        C  0.77338875  0.89909233  0.26477178    -0.22200
C842        C  0.74374609  0.89695836  0.26586262    -0.22200
C843        C  0.76497052  0.10270595  0.26321309    -0.22200
C844        C  0.73534537  0.10047863  0.26539327    -0.22200
C845        C  0.80926696  0.94341131  0.25152837    -0.17500
C846        C  0.80423418  0.06320558  0.25092670    -0.17500
C847        C  0.69947256  0.05553905  0.25762802    -0.17500
C848        C  0.70455867  0.93579583  0.25486928    -0.17500
H849        H  0.86233916  0.97463473  0.22950863     0.15400
H850        H  0.85977027  0.03909496  0.22939753     0.15400
H851        H  0.65034508  0.95999611  0.23461843     0.15400
H852        H  0.64738603  0.02453580  0.23691096     0.15400
H853        H  0.78789981  0.87903645  0.26857002     0.13700
H854        H  0.73094711  0.87494004  0.27079630     0.13700
H855        H  0.77770596  0.12504674  0.26548487     0.13700
H856        H  0.72083056  0.12076226  0.26958301     0.13700
H857        H  0.77850130  0.00133271  0.26495994     0.26900
H858        H  0.72964512  0.99752118  0.26911044     0.26900
C859        C  0.52165984  0.76659281  0.27178102     0.46200
H860        H  0.53550557  0.76900858  0.29270067    -0.02800
C861        C  0.98699451  0.76211080  0.22457364     0.46300
H862        H  0.97217340  0.75969834  0.20412613    -0.02800
C863        C  0.99504218  0.78868991  0.27624685    -0.16500
C864        C  0.53642985  0.77736293  0.23864418    -0.16300
C865        C  0.50982264  0.73146061  0.26733276    -0.16600
C866        C  0.97604256  0.78581225  0.25150572    -0.16600
C867        C  0.51650455  0.77722985  0.21411206    -0.16200
C868        C  0.99306607  0.72878996  0.24054325    -0.16500
O869        O  0.51823289  0.97126177  0.03870084    -0.72200
O870        O  0.51747484  0.03652186  0.46756697    -0.73200
O871        O  0.51158699  0.04037637  0.03504707    -0.61800
O872        O  0.52325678  0.96785315  0.47018653    -0.70200
O873        O  0.97560504  0.96038752  0.47028194    -0.69700
O874        O  0.96394215  0.03451917  0.03305328    -0.61000
O875        O  0.96994282  0.02963258  0.46444056    -0.73500
O876        O  0.97059161  0.96494666  0.03886299    -0.72300
Cu877      Cu  0.51910767  0.00414346  0.00311364     1.04600
Cu878      Cu  0.96814986  0.99708267  0.00169162     1.04300
C879        C  0.99507216  0.95715664  0.04967286     0.94000
C880        C  0.99374610  0.04368019  0.45499069     0.93200
C881        C  0.98610690  0.05000584  0.04290891     0.85300
C882        C  0.00097626  0.95291995  0.45980244     0.91600
C883        C  0.50966932  0.86229827  0.17872467    -0.01300
C884        C  0.50392330  0.85524393  0.14608834     0.07300
C885        C  0.00353430  0.82251259  0.13541603    -0.07200
C886        C  0.00847005  0.79679247  0.15682177     0.04800
C887        C  0.51456200  0.80371945  0.18945791    -0.14400
C888        C  0.51476859  0.83663383  0.20006904    -0.07800
C889        C  0.50076817  0.88161269  0.12190978     0.05700
C890        C  0.52294721  0.88599202  0.09815879    -0.08900
C891        C  0.52141413  0.91031349  0.07455728     0.00700
C892        C  0.49711848  0.93100254  0.07438290     0.00600
C893        C  0.97458863  0.92621215  0.09795751    -0.12400
C894        C  0.97630840  0.90180558  0.12176701     0.01000
C895        C  0.54471401  0.91248953  0.05015464     0.40400
C896        C  0.95266279  0.89756047  0.14546127     0.37000
C897        C  0.51106198  0.89564428  0.19063881     0.36700
C898        C  0.00710521  0.76366485  0.14448879     0.37500
N899        N  0.56340692  0.91416328  0.03064300    -0.43300
N900        N  0.93375981  0.89415917  0.16450559    -0.43800
N901        N  0.00568164  0.73743490  0.13374672    -0.41100
N902        N  0.51210614  0.92238410  0.20017681    -0.42600
H903        H  0.51934112  0.84224211  0.22511399     0.13600
H904        H  0.99934064  0.81709116  0.11019731     0.10100
H905        H  0.54161392  0.87022145  0.09809256     0.11100
H906        H  0.95578358  0.94172954  0.09798611     0.17000
C907        C  0.48935841  0.87396354  0.41414408    -0.01300
C908        C  0.00141982  0.88191863  0.38294002     0.07300
C909        C  0.01568362  0.91243226  0.37849279    -0.07200
C910        C  0.01815559  0.93459524  0.40425881     0.04800
C911        C  0.00403459  0.92763375  0.43444161    -0.14400
C912        C  0.48993988  0.89724577  0.43921316    -0.07800
C913        C  0.99936188  0.85907025  0.35467437     0.05700
C914        C  0.97255296  0.84438509  0.34776138    -0.08900
C915        C  0.97026082  0.82124109  0.32265446     0.00700
C916        C  0.99464344  0.81461216  0.30201594     0.00600
C917        C  0.52087325  0.83106279  0.30768356    -0.12400
C918        C  0.52378000  0.85178686  0.33439799     0.01000
C919        C  0.94347410  0.80290072  0.32054469     0.40400
C920        C  0.55252638  0.86329838  0.34153008     0.37000
C921        C  0.47692797  0.84194754  0.42140495     0.36700
C922        C  0.03458222  0.96466460  0.39883462     0.37500
N923        N  0.92195060  0.78821494  0.31919144    -0.43300
N924        N  0.57559929  0.87230488  0.34726700    -0.43800
N925        N  0.04802075  0.98857819  0.39458401    -0.41100
N926        N  0.46703724  0.81627557  0.42728768    -0.42600
H927        H  0.47952819  0.89164599  0.46268726     0.13600
H928        H  0.02482412  0.91914637  0.35472174     0.10100
H929        H  0.95349611  0.85008623  0.36278863     0.11100
H930        H  0.53976899  0.82657316  0.29199351     0.17000
C931        C  0.66536342  0.86018687  0.22326443    -0.01300
C932        C  0.64144334  0.85718134  0.24554808     0.07300
C933        C  0.63944901  0.87872155  0.27225455    -0.07200
C934        C  0.66009854  0.90386461  0.27615581     0.04800
C935        C  0.68301377  0.90814065  0.25275065    -0.14400
C936        C  0.68557409  0.88583124  0.22669514    -0.07800
C937        C  0.61744806  0.83304889  0.24065291     0.05700
C938        C  0.61165475  0.80817438  0.26349655    -0.08900
C939        C  0.58747593  0.78707563  0.26105938     0.00700
C940        C  0.56715234  0.79210595  0.23653252     0.00600
C941        C  0.57652731  0.81303844  0.21076416    -0.12400
C942        C  0.60008426  0.83466617  0.21349334     0.01000
C943        C  0.58637393  0.75848759  0.28170019     0.40400
C944        C  0.60479039  0.85965288  0.18893817     0.37000
C945        C  0.66987546  0.83690597  0.19706193     0.36700
C946        C  0.65745664  0.92493904  0.30437625     0.37500
N947        N  0.58581802  0.73553959  0.29821801    -0.43300
N948        N  0.60833454  0.87978269  0.16935864    -0.43800
N949        N  0.65544461  0.94185414  0.32699437    -0.41100
N950        N  0.67354736  0.81816154  0.17614460    -0.42600
H951        H  0.70346169  0.88850544  0.20899041     0.13600
H952        H  0.62139196  0.87625579  0.28976650     0.10100
H953        H  0.62625815  0.80503443  0.28314307     0.11100
H954        H  0.56575836  0.81358220  0.18822608     0.17000
C955        C  0.87030176  0.88886038  0.27592739    -0.01300
C956        C  0.87970669  0.87513806  0.24579880     0.07300
C957        C  0.86516499  0.88302253  0.21768924    -0.07200
C958        C  0.84202581  0.90490827  0.21918930     0.04800
C959        C  0.83313792  0.91921941  0.24918147    -0.14400
C960        C  0.84728350  0.91083161  0.27736984    -0.07800
C961        C  0.90497444  0.85297672  0.24339397     0.05700
C962        C  0.90061260  0.81932603  0.23773479    -0.08900
C963        C  0.92360506  0.79730273  0.23886844     0.00700
C964        C  0.95153767  0.80879658  0.24643272     0.00600
C965        C  0.95602113  0.84291318  0.24983687    -0.12400
C966        C  0.93319183  0.86486429  0.24826387     0.01000
C967        C  0.91749297  0.76298780  0.23336098     0.40400
C968        C  0.93920355  0.89956786  0.25171325     0.37000
C969        C  0.88376948  0.88034890  0.30570797     0.36700
C970        C  0.82786824  0.91277115  0.18969231     0.37500
N971        N  0.91211422  0.73565203  0.22838662    -0.43300
N972        N  0.94400890  0.92739986  0.25430129    -0.43800
N973        N  0.81642473  0.91920712  0.16613560    -0.41100
N974        N  0.89460001  0.87340460  0.32951103    -0.42600
H975        H  0.84031938  0.92153347  0.30050770     0.13600
H976        H  0.87217802  0.87243362  0.19451949     0.10100
H977        H  0.87900957  0.81012549  0.23333622     0.11100
H978        H  0.97731499  0.85264753  0.25445820     0.17000
C979        C  0.96231030  0.18239685  0.14117515    -0.01300
C980        C  0.98272320  0.15937414  0.12985981     0.07300
C981        C  0.00942860  0.15812225  0.14422479    -0.07200
C982        C  0.01577703  0.17790964  0.17062553     0.04800
C983        C  0.99451097  0.19915746  0.18423082    -0.14400
C984        C  0.96833410  0.20211768  0.16820375    -0.07800
C985        C  0.97769816  0.13537128  0.10356191     0.05700
C986        C  0.49775694  0.13526990  0.07711194    -0.08900
C987        C  0.50069415  0.10777428  0.05708073     0.00700
C988        C  0.98239374  0.08009977  0.06252245     0.00600
C989        C  0.96048899  0.08131455  0.08713045    -0.12400
C990        C  0.95841213  0.10843293  0.10814687     0.01000
C991        C  0.52342126  0.10832219  0.03193518     0.40400
C992        C  0.93814741  0.10679494  0.13576153     0.37000
C993        C  0.43536816  0.18627783  0.12537017     0.36700
C994        C  0.04412909  0.17390356  0.18289517     0.37500
N995        N  0.54190043  0.10873506  0.01211479    -0.43300
N996        N  0.92194258  0.10545266  0.15791616    -0.43800
N997        N  0.06758542  0.16918443  0.19001206    -0.41100
N998        N  0.41380925  0.18942703  0.11257824    -0.42600
H999        H  0.95227705  0.21931955  0.17729696     0.13600
H1000       H  0.02538109  0.14074394  0.13506591     0.10100
H1001       H  0.51275245  0.15584372  0.07371537     0.11100
H1002       H  0.94620111  0.06024317  0.09122659     0.17000
C1003       C  0.98259019  0.15170648  0.33868849    -0.01300
C1004       C  0.50537550  0.14667209  0.35958463     0.07300
C1005       C  0.53017488  0.16712163  0.35675890    -0.07200
C1006       C  0.53266765  0.19163773  0.33281817     0.04800
C1007       C  0.51064623  0.19487756  0.31040972    -0.14400
C1008       C  0.98550339  0.17529612  0.31444085    -0.07800
C1009       C  0.50313145  0.12024706  0.38439454     0.05700
C1010       C  0.99728178  0.08781225  0.37432684    -0.08900
C1011       C  0.99239570  0.06265561  0.39705455     0.00700
C1012       C  0.49441821  0.06962632  0.43037419     0.00600
C1013       C  0.50052994  0.10180268  0.44047009    -0.12400
C1014       C  0.50462908  0.12715570  0.41789004     0.01000
C1015       C  0.98536162  0.03004643  0.38566662     0.40400
C1016       C  0.50948448  0.16009724  0.42978006     0.37000
C1017       C  0.95573176  0.13320117  0.34181061     0.36700
C1018       C  0.55752154  0.21347805  0.33214966     0.37500
N1019       N  0.97941838  0.00404853  0.37637415    -0.43300
N1020       N  0.51340611  0.18648753  0.43933371    -0.43800
N1021       N  0.57738608  0.23109938  0.33175367    -0.41100
N1022       N  0.93432596  0.11821674  0.34439110    -0.42600
H1023       H  0.96796939  0.17781055  0.29824935     0.13600
H1024       H  0.54759877  0.16386771  0.37318501     0.10100
H1025       H  0.99608323  0.08227466  0.34860726     0.11100
H1026       H  0.50188303  0.10714925  0.46616715     0.17000
C1027       C  0.89687680  0.19397006  0.25070996    -0.01300
C1028       C  0.89690905  0.15996072  0.24424567     0.07300
C1029       C  0.92314679  0.14457066  0.23683014    -0.07200
C1030       C  0.94924085  0.16231959  0.23580312     0.04800
C1031       C  0.94935641  0.19673762  0.24111797    -0.14400
C1032       C  0.92301646  0.21201046  0.24921237    -0.07800
C1033       C  0.87031973  0.13908447  0.24629437     0.05700
C1034       C  0.85951671  0.12609530  0.21750299    -0.08900
C1035       C  0.83737757  0.10220048  0.21850024     0.00700
C1036       C  0.82603424  0.09057251  0.24873633     0.00600
C1037       C  0.83618144  0.10432869  0.27751307    -0.12400
C1038       C  0.85808591  0.12851441  0.27650677     0.01000
C1039       C  0.82735526  0.08902637  0.18829016     0.40400
C1040       C  0.86838157  0.14128726  0.30674628     0.37000
C1041       C  0.87036482  0.21075131  0.25898889     0.36700
C1042       C  0.97543916  0.14382394  0.23158222     0.37500
N1043       N  0.81940162  0.07834035  0.16408397    -0.43300
N1044       N  0.87645174  0.15169601  0.33101055    -0.43800
N1045       N  0.99592648  0.12809841  0.22814677    -0.41100
N1046       N  0.84913039  0.22424009  0.26571161    -0.42600
H1047       H  0.92286084  0.23802947  0.25463911     0.13600
H1048       H  0.92328320  0.11822567  0.23279617     0.10100
H1049       H  0.86901129  0.13397726  0.19423399     0.11100
H1050       H  0.82735625  0.09561918  0.30079025     0.17000
C1051       C  0.57709020  0.13793290  0.26728410    -0.01300
C1052       C  0.60580330  0.14854334  0.26064119     0.07300
C1053       C  0.61117528  0.18131778  0.25165785    -0.07200
C1054       C  0.58851531  0.20365947  0.24981013     0.04800
C1055       C  0.55973774  0.19348510  0.25788794    -0.14400
C1056       C  0.55454238  0.16022019  0.26577108    -0.07800
C1057       C  0.63023033  0.12527176  0.26060216     0.05700
C1058       C  0.64437809  0.11726528  0.23086599    -0.08900
C1059       C  0.66687047  0.09464525  0.22947821     0.00700
C1060       C  0.67555027  0.07962487  0.25820138     0.00600
C1061       C  0.66169423  0.08789495  0.28802685    -0.12400
C1062       C  0.63923186  0.11063191  0.28945430     0.01000
C1063       C  0.68062200  0.08690453  0.19833991     0.40400
C1064       C  0.62610105  0.11905585  0.32076516     0.37000
C1065       C  0.57004858  0.10396803  0.27428691     0.36700
C1066       C  0.59560030  0.23597092  0.23754556     0.37500
N1067       N  0.69166245  0.08060155  0.17340183    -0.43300
N1068       N  0.61557975  0.12584672  0.34584904    -0.43800
N1069       N  0.60236023  0.26127225  0.22679244    -0.41100
N1070       N  0.56430886  0.07675154  0.27980380    -0.42600
H1071       H  0.53263376  0.15127472  0.27019505     0.13600
H1072       H  0.63316532  0.18928957  0.24540390     0.10100
H1073       H  0.63757080  0.12845455  0.20863738     0.11100
H1074       H  0.66856492  0.07665999  0.31019969     0.17000
C1075       C  0.54134407  0.32741656  0.16655880    -0.01300
C1076       C  0.51536630  0.34267341  0.15864162     0.07300
C1077       C  0.98987056  0.33390288  0.17611865    -0.07200
C1078       C  0.98961352  0.31026876  0.20066099     0.04800
C1079       C  0.51577448  0.29564792  0.20969169    -0.14400
C1080       C  0.54138536  0.30446115  0.19208248    -0.07800
C1081       C  0.51333836  0.36623220  0.13105964     0.05700
C1082       C  0.99366351  0.35916228  0.10672317    -0.08900
C1083       C  0.98860580  0.38182210  0.08212841     0.00700
C1084       C  0.50408494  0.41194586  0.08082633     0.00600
C1085       C  0.52418968  0.41878286  0.10473430    -0.12400
C1086       C  0.52841772  0.39666642  0.13008301     0.01000
C1087       C  0.96623481  0.37443386  0.05968259     0.40400
C1088       C  0.54668062  0.40686408  0.15597221     0.37000
C1089       C  0.56782274  0.33350441  0.14766733     0.36700
C1090       C  0.96155939  0.29984726  0.21368914     0.37500
N1091       N  0.94818819  0.36860095  0.04181334    -0.43300
N1092       N  0.56120387  0.41523490  0.17677062    -0.43800
N1093       N  0.93866973  0.29194707  0.22327216    -0.41100
N1094       N  0.58897689  0.33843606  0.13238025    -0.42600
H1095       H  0.56137471  0.29279744  0.19769887     0.13600
H1096       H  0.96968534  0.34487841  0.16972124     0.10100
H1097       H  0.98149718  0.33617916  0.10755910     0.11100
H1098       H  0.53575509  0.44216043  0.10430538     0.17000
C1099       C  0.96653510  0.33280594  0.32045463    -0.01300
C1100       C  0.99182508  0.34722598  0.33289656     0.07300
C1101       C  0.51875937  0.33630038  0.32094202    -0.07200
C1102       C  0.52098881  0.31216058  0.29682452     0.04800
C1103       C  0.99578923  0.29765161  0.28426106    -0.14400
C1104       C  0.96873211  0.30791788  0.29674686    -0.07800
C1105       C  0.99115239  0.37253085  0.35934922     0.05700
C1106       C  0.97522780  0.36618298  0.38852424    -0.08900
C1107       C  0.97497321  0.38880817  0.41429199     0.00700
C1108       C  0.99210231  0.41778737  0.41193456     0.00600
C1109       C  0.50863122  0.42374048  0.38309075    -0.12400
C1110       C  0.50763382  0.40203236  0.35665607     0.01000
C1111       C  0.95625186  0.38219722  0.44249808     0.40400
C1112       C  0.52287525  0.41124902  0.32664383     0.37000
C1113       C  0.93811395  0.34324856  0.33134632     0.36700
C1114       C  0.54964431  0.30153592  0.28738504     0.37500
N1115       N  0.94115033  0.37699077  0.46505392    -0.43300
N1116       N  0.53498597  0.41867875  0.30255748    -0.43800
N1117       N  0.57304871  0.29379303  0.28072694    -0.41100
N1118       N  0.91532503  0.35155353  0.34018255    -0.42600
H1119       H  0.94924263  0.29637265  0.28808518     0.13600
H1120       H  0.53832484  0.34620440  0.33112056     0.10100
H1121       H  0.96286137  0.34346078  0.39122104     0.11100
H1122       H  0.52178633  0.44596000  0.38091708     0.17000
C1123       C  0.51386363  0.66970930  0.17272089    -0.01300
C1124       C  0.99007815  0.64757102  0.17274341     0.07300
C1125       C  0.96851262  0.65010600  0.19780016    -0.07200
C1126       C  0.96978051  0.67519846  0.22145188     0.04800
C1127       C  0.99240868  0.69873298  0.21967196    -0.14400
C1128       C  0.51471436  0.69499881  0.19585167    -0.07800
C1129       C  0.98739428  0.62245951  0.14625364     0.05700
C1130       C  0.50875401  0.59854882  0.14190852    -0.08900
C1131       C  0.50874310  0.57682095  0.11533459     0.00700
C1132       C  0.98681982  0.57839481  0.09247019     0.00600
C1133       C  0.96513177  0.60186156  0.09711753    -0.12400
C1134       C  0.96525931  0.62375835  0.12365494     0.01000
C1135       C  0.53181748  0.55349262  0.11166202     0.40400
C1136       C  0.94301378  0.64811655  0.12654214     0.37000
C1137       C  0.53708214  0.66796128  0.14824985     0.36700
C1138       C  0.94836411  0.67581407  0.24788207     0.37500
N1139       N  0.55019181  0.53465735  0.10871853    -0.43300
N1140       N  0.92516888  0.66764318  0.12886909    -0.43800
N1141       N  0.93152298  0.67617945  0.26945464    -0.41100
N1142       N  0.55569495  0.66646878  0.12867079    -0.42600
H1143       H  0.53264013  0.71248040  0.19482054     0.13600
H1144       H  0.95065953  0.63254367  0.19879265     0.10100
H1145       H  0.52588350  0.59732942  0.15902915     0.11100
H1146       H  0.94812001  0.60314358  0.07986310     0.17000
C1147       C  0.97549764  0.62163091  0.37881215    -0.01300
C1148       C  0.50349785  0.62782104  0.36503424     0.07300
C1149       C  0.52723537  0.61311916  0.37886140    -0.07200
C1150       C  0.52334606  0.59234427  0.40589549     0.04800
C1151       C  0.49536460  0.58631482  0.41979277    -0.14400
C1152       C  0.97164746  0.60116250  0.40603941    -0.07800
C1153       C  0.50848507  0.65328258  0.33948561     0.05700
C1154       C  0.00641573  0.68593061  0.34917928    -0.08900
C1155       C  0.50853492  0.71152285  0.32669992     0.00700
C1156       C  0.51247861  0.70486824  0.29273557     0.00600
C1157       C  0.51677541  0.67176783  0.28348879    -0.12400
C1158       C  0.51451508  0.64611898  0.30640854     0.01000
C1159       C  0.00638092  0.74379678  0.34081233     0.40400
C1160       C  0.51760540  0.61267007  0.29533639     0.37000
C1161       C  0.95039234  0.63574714  0.36500738     0.36700
C1162       C  0.54831103  0.57722635  0.41895509     0.37500
N1163       N  0.00537486  0.76843912  0.35483305    -0.43300
N1164       N  0.52005488  0.58586298  0.28635122    -0.43800
N1165       N  0.56826241  0.56506953  0.42953700    -0.41100
N1166       N  0.93033391  0.64700526  0.35375741    -0.44500
H1167       H  0.95003746  0.59599902  0.41608369     0.13600
H1168       H  0.54884396  0.61828199  0.36881314     0.10100
H1169       H  0.00260168  0.69143771  0.37483867     0.11100
H1170       H  0.52185600  0.66554441  0.25839080     0.17000
N1171       N  0.98604521  0.54962940  0.50454165    -0.35800
N1172       N  0.48975042  0.50125740  0.95178557    -0.56400
N1173       N  0.49284731  0.44878982  0.99818346    -0.35800
N1174       N  0.49108911  0.49664890  0.55063516    -0.56400
C1175       C  0.99251773  0.56933738  0.97873985     0.27700
C1176       C  0.99096597  0.56678814  0.53213497     0.27700
C1177       C  0.50022626  0.43320789  0.97003600     0.27700
C1178       C  0.50359045  0.43108600  0.52271674     0.27700
C1179       C  0.98361699  0.52850400  0.93499210     0.36400
C1180       C  0.48430553  0.47542976  0.93207610     0.36400
C1181       C  0.98249425  0.52096840  0.57111476     0.36400
C1182       C  0.48824339  0.46837903  0.56763032     0.36400
C1183       C  0.00148784  0.59977896  0.99011320    -0.21100
C1184       C  0.00067355  0.59817857  0.52393903    -0.21100
C1185       C  0.51567423  0.40532929  0.97668087    -0.21100
C1186       C  0.51802980  0.40403397  0.51001204    -0.21100
C1187       C  0.97424605  0.51996950  0.90448335    -0.22200
C1188       C  0.47413182  0.48633876  0.90288016    -0.22200
C1189       C  0.97371705  0.50801626  0.60108679    -0.22200
C1190       C  0.47740678  0.47468441  0.59889231    -0.22200
C1191       C  0.98952305  0.56087326  0.94548254    -0.17500
C1192       C  0.98616068  0.55483885  0.56436167    -0.17500
C1193       C  0.49823315  0.43762028  0.55625099    -0.17500
C1194       C  0.49159461  0.44264734  0.93888055    -0.17500
H1195       H  0.00814569  0.62096515  0.97572439     0.15400
H1196       H  0.00627799  0.61783243  0.54041844     0.15400
H1197       H  0.52425839  0.38756211  0.95935529     0.15400
H1198       H  0.52836512  0.38500305  0.52338946     0.15400
H1199       H  0.96840006  0.53619782  0.88517927     0.13700
H1200       H  0.46812398  0.47174746  0.88212258     0.13700
H1201       H  0.96636944  0.52133655  0.62260936     0.13700
H1202       H  0.47327346  0.45719447  0.61832075     0.13700
H1203       H  0.97597548  0.52667185  0.50337029     0.26900
H1204       H  0.47843339  0.46806945  0.00066943     0.26900
C1205       C  0.98613340  0.23506189  0.77155126     0.46200
H1206       H  0.96889282  0.23597921  0.79112693    -0.02800
C1207       C  0.52599423  0.23381529  0.72530537     0.46300
H1208       H  0.54313995  0.23386069  0.70570881    -0.02800
C1209       C  0.51280802  0.21674348  0.78129146    -0.16500
C1210       C  0.97677931  0.21676899  0.74056166    -0.16300
C1211       C  0.99748647  0.26911783  0.76129962    -0.16600
C1212       C  0.53448546  0.21609120  0.75711229    -0.16600
C1213       C  0.99797941  0.21623184  0.71596987    -0.16200
C1214       C  0.51622721  0.26877352  0.73470501    -0.16500
N1215       N  0.79885701  0.00273742  0.75323153    -0.35800
N1216       N  0.75657360  0.94898375  0.75394308    -0.56400
N1217       N  0.70994522  0.99629962  0.75834066    -0.35800
N1218       N  0.75229975  0.05010817  0.75463687    -0.56400
C1219       C  0.81643298  0.97706030  0.74671391     0.27700
C1220       C  0.81418488  0.03059647  0.74619029     0.27700
C1221       C  0.69490491  0.96845532  0.75156039     0.27700
C1222       C  0.69254351  0.02196049  0.75297140     0.27700
C1223       C  0.78075560  0.93142937  0.75763998     0.36400
C1224       C  0.73393678  0.92803221  0.75924992     0.36400
C1225       C  0.77494746  0.07132047  0.75655227     0.36400
C1226       C  0.72813941  0.06785969  0.76006443     0.36400
C1227       C  0.84342687  0.98876077  0.73595345    -0.21100
C1228       C  0.84204269  0.02245071  0.73569123    -0.21100
C1229       C  0.66754050  0.97659872  0.74203004    -0.21100
C1230       C  0.66597790  0.01028040  0.74318154    -0.21100
C1231       C  0.77345068  0.89915841  0.76521172    -0.22200
C1232       C  0.74380548  0.89702911  0.76634506    -0.22200
C1233       C  0.76508335  0.10277620  0.76277469    -0.22200
C1234       C  0.73546147  0.10056540  0.76509652    -0.22200
C1235       C  0.80931896  0.94342492  0.75172267    -0.17500
C1236       C  0.80429776  0.06320651  0.75054500    -0.17500
C1237       C  0.69954181  0.05559200  0.75774034    -0.17500
C1238       C  0.70461261  0.93583932  0.75529352    -0.17500
H1239       H  0.86231112  0.97453883  0.72925746     0.15400
H1240       H  0.85973147  0.03900451  0.72880025     0.15400
H1241       H  0.65033373  0.95999222  0.73518768     0.15400
H1242       H  0.64738618  0.02453385  0.73732544     0.15400
H1243       H  0.78796449  0.87910869  0.76902489     0.13700
H1244       H  0.73100517  0.87502431  0.77133948     0.13700
H1245       H  0.77783830  0.12512169  0.76489881     0.13700
H1246       H  0.72096440  0.12086831  0.76926879     0.13700
H1247       H  0.77861224  0.00141673  0.76501688     0.26900
H1248       H  0.72974758  0.99761382  0.76929942     0.26900
C1249       C  0.52162625  0.76657095  0.77187275     0.46200
H1250       H  0.53537539  0.76896050  0.79287590    -0.02800
C1251       C  0.98710971  0.76214161  0.72451620     0.46300
H1252       H  0.97234591  0.75975239  0.70401366    -0.02800
C1253       C  0.99501781  0.78868848  0.77623484    -0.16500
C1254       C  0.53650910  0.77734406  0.73879241    -0.16300
C1255       C  0.50977918  0.73145477  0.76735707    -0.16600
C1256       C  0.97609600  0.78583795  0.75141946    -0.16600
C1257       C  0.51665781  0.77724325  0.71417761    -0.16200
C1258       C  0.99310659  0.72880987  0.74050051    -0.16500
O1259       O  0.51853647  0.97134710  0.53872586    -0.72200
O1260       O  0.51723325  0.03659328  0.96764629    -0.73200
O1261       O  0.51181924  0.04042822  0.53494586    -0.61800
O1262       O  0.52297765  0.96790331  0.97014697    -0.70200
O1263       O  0.97532476  0.96044987  0.97024393    -0.69700
O1264       O  0.96417698  0.03452641  0.53299711    -0.61000
O1265       O  0.96970578  0.02969181  0.96448466    -0.73500
O1266       O  0.97090603  0.96494648  0.53890434    -0.72300
Cu1267     Cu  0.51936785  0.00414683  0.50308403     1.04600
Cu1268     Cu  0.96841362  0.99704784  0.50168774     1.04300
C1269       C  0.99540086  0.95721503  0.54972480     0.94000
C1270       C  0.99350877  0.04374602  0.95505356     0.93200
C1271       C  0.98633780  0.05006470  0.54279229     0.85300
C1272       C  0.00069342  0.95298696  0.95975086     0.91600
C1273       C  0.51004640  0.86237538  0.67885546    -0.01300
C1274       C  0.50432608  0.85537089  0.64620514     0.07300
C1275       C  0.00387476  0.82265626  0.63549760    -0.07200
C1276       C  0.00871733  0.79689619  0.65688808     0.04800
C1277       C  0.51479758  0.80376828  0.68954187    -0.14400
C1278       C  0.51507271  0.83667360  0.70018253    -0.07800
C1279       C  0.50119627  0.88177006  0.62206107     0.05700
C1280       C  0.52348475  0.88633323  0.59847876    -0.08900
C1281       C  0.52193147  0.91063027  0.57485428     0.00700
C1282       C  0.49749899  0.93110926  0.57448713     0.00600
C1283       C  0.97487898  0.92614737  0.59792024    -0.12400
C1284       C  0.97662218  0.90176575  0.62175117     0.01000
C1285       C  0.54536136  0.91297833  0.55062390     0.40400
C1286       C  0.95288359  0.89733013  0.64529272     0.37000
C1287       C  0.51144828  0.89570489  0.69081100     0.36700
C1288       C  0.00723176  0.76378676  0.64452537     0.37500
N1289       N  0.56416141  0.91478588  0.53125385    -0.43300
N1290       N  0.93390591  0.89376743  0.66421403    -0.43800
N1291       N  0.00569448  0.73757803  0.63375299    -0.41100
N1292       N  0.51250209  0.92242914  0.70039020    -0.42600
H1293       H  0.51961338  0.84224440  0.72524459     0.13600
H1294       H  0.99968467  0.81727816  0.61026904     0.10100
H1295       H  0.54224101  0.87070675  0.59854650     0.11100
H1296       H  0.95597633  0.94150324  0.59781577     0.17000
C1297       C  0.48916964  0.87400175  0.91409559    -0.01300
C1298       C  0.00117204  0.88199128  0.88287473     0.07300
C1299       C  0.01534328  0.91255309  0.87839910    -0.07200
C1300       C  0.01779869  0.93472540  0.90415890     0.04800
C1301       C  0.00374657  0.92771904  0.93436972    -0.14400
C1302       C  0.48972960  0.89728826  0.93916458    -0.07800
C1303       C  0.99916933  0.85911865  0.85462385     0.05700
C1304       C  0.97238959  0.84436835  0.84769951    -0.08900
C1305       C  0.97014850  0.82122825  0.82258063     0.00700
C1306       C  0.99456491  0.81462008  0.80198957     0.00600
C1307       C  0.52076815  0.83110909  0.80768407    -0.12400
C1308       C  0.52361360  0.85188299  0.83436985     0.01000
C1309       C  0.94338629  0.80285037  0.82041437     0.40400
C1310       C  0.55232550  0.86352959  0.84147861     0.37000
C1311       C  0.47683398  0.84194428  0.92137261     0.36700
C1312       C  0.03415278  0.96483850  0.89870387     0.37500
N1313       N  0.92188935  0.78812309  0.81900276    -0.43300
N1314       N  0.57536915  0.87265804  0.84719004    -0.43800
N1315       N  0.04753893  0.98878320  0.89441864    -0.41100
N1316       N  0.46702333  0.81623774  0.92726935    -0.42600
H1317       H  0.47936985  0.89165583  0.96265772     0.13600
H1318       H  0.02443719  0.91928900  0.85461318     0.10100
H1319       H  0.95331725  0.85002698  0.86271837     0.11100
H1320       H  0.53968450  0.82663065  0.79202370     0.17000
C1321       C  0.66538541  0.86029627  0.72360544    -0.01300
C1322       C  0.64145556  0.85728629  0.74587814     0.07300
C1323       C  0.63949296  0.87877207  0.77263246    -0.07200
C1324       C  0.66017459  0.90387179  0.77658346     0.04800
C1325       C  0.68307692  0.90817721  0.75316986    -0.14400
C1326       C  0.68561490  0.88591447  0.72707477    -0.07800
C1327       C  0.61746801  0.83313737  0.74098099     0.05700
C1328       C  0.61160768  0.80835855  0.76391034    -0.08900
C1329       C  0.58745746  0.78722060  0.76145740     0.00700
C1330       C  0.56723364  0.79209713  0.73679112     0.00600
C1331       C  0.57670133  0.81290778  0.71096347    -0.12400
C1332       C  0.60019885  0.83461305  0.71373013     0.01000
C1333       C  0.58630770  0.75874526  0.78224793     0.40400
C1334       C  0.60491320  0.85954604  0.68912283     0.37000
C1335       C  0.66990722  0.83702652  0.69739468     0.36700
C1336       C  0.65759532  0.92485538  0.80487539     0.37500
N1337       N  0.58572073  0.73589432  0.79889790    -0.43300
N1338       N  0.60845084  0.87963470  0.66950048    -0.43800
N1339       N  0.65564351  0.94168819  0.82755850    -0.41100
N1340       N  0.67358446  0.81828848  0.67647270    -0.42600
H1341       H  0.70350233  0.88860173  0.70937156     0.13600
H1342       H  0.62144667  0.87628608  0.79015528     0.10100
H1343       H  0.62614003  0.80532321  0.78364225     0.11100
H1344       H  0.56603102  0.81330748  0.68835461     0.17000
C1345       C  0.87050962  0.88902395  0.77599524    -0.01300
C1346       C  0.87978502  0.87518465  0.74586989     0.07300
C1347       C  0.86509829  0.88293400  0.71782399    -0.07200
C1348       C  0.84194861  0.90480200  0.71937243     0.04800
C1349       C  0.83318086  0.91922063  0.74935341    -0.14400
C1350       C  0.84746741  0.91096600  0.77748725    -0.07800
C1351       C  0.90505450  0.85302590  0.74339114     0.05700
C1352       C  0.90068799  0.81938473  0.73766564    -0.08900
C1353       C  0.92368252  0.79735670  0.73872876     0.00700
C1354       C  0.95161686  0.80883612  0.74629352     0.00600
C1355       C  0.95611381  0.84294745  0.74971609    -0.12400
C1356       C  0.93328475  0.86490513  0.74820965     0.01000
C1357       C  0.91757621  0.76304963  0.73315844     0.40400
C1358       C  0.93931167  0.89960367  0.75167917     0.37000
C1359       C  0.88414382  0.88067724  0.80572145     0.36700
C1360       C  0.82767253  0.91256083  0.68992506     0.37500
N1361       N  0.91221389  0.73571863  0.72813530    -0.43300
N1362       N  0.94413072  0.92743073  0.75428882    -0.43800
N1363       N  0.81613953  0.91892239  0.66640683    -0.41100
N1364       N  0.89511552  0.87387430  0.82947835    -0.42600
H1365       H  0.84060481  0.92176096  0.80061717     0.13600
H1366       H  0.87201498  0.87226380  0.69465759     0.10100
H1367       H  0.87908019  0.81019255  0.73327879     0.11100
H1368       H  0.97741575  0.85266780  0.75432258     0.17000
C1369       C  0.96266726  0.18273984  0.64072558    -0.01300
C1370       C  0.98301082  0.15957703  0.62955210     0.07300
C1371       C  0.00963739  0.15817293  0.64407668    -0.07200
C1372       C  0.01595423  0.17794035  0.67050466     0.04800
C1373       C  0.99471587  0.19928807  0.68399472    -0.14400
C1374       C  0.96863986  0.20240703  0.66780746    -0.07800
C1375       C  0.97798759  0.13558655  0.60324086     0.05700
C1376       C  0.49815753  0.13534061  0.57690092    -0.08900
C1377       C  0.50104999  0.10781071  0.55691036     0.00700
C1378       C  0.98262762  0.08022796  0.56230907     0.00600
C1379       C  0.96060796  0.08160855  0.58677766    -0.12400
C1380       C  0.95854314  0.10877863  0.60773115     0.01000
C1381       C  0.52383620  0.10823828  0.53183119     0.40400
C1382       C  0.93809812  0.10732757  0.63518842     0.37000
C1383       C  0.43585713  0.18682980  0.62470950     0.36700
C1384       C  0.04423294  0.17380930  0.68293057     0.37500
N1385       N  0.54234657  0.10854668  0.51204707    -0.43300
N1386       N  0.92173993  0.10613850  0.65720980    -0.43800
N1387       N  0.06763551  0.16898248  0.69017606    -0.41100
N1388       N  0.41441015  0.19015512  0.61173925    -0.42600
H1389       H  0.95261797  0.21969001  0.67681900     0.13600
H1390       H  0.02554871  0.14069989  0.63501805     0.10100
H1391       H  0.51325399  0.15582757  0.57355821     0.11100
H1392       H  0.94620769  0.06062537  0.59082277     0.17000
C1393       C  0.98233345  0.15151691  0.83840232    -0.01300
C1394       C  0.50504677  0.14654759  0.85942095     0.07300
C1395       C  0.52981390  0.16706187  0.85670497    -0.07200
C1396       C  0.53232921  0.19160571  0.83280497     0.04800
C1397       C  0.51040906  0.19475821  0.81027239    -0.14400
C1398       C  0.98530107  0.17510000  0.81415128    -0.07800
C1399       C  0.50275902  0.12017333  0.88428838     0.05700
C1400       C  0.99680162  0.08773062  0.87431499    -0.08900
C1401       C  0.99195203  0.06263192  0.89711212     0.00700
C1402       C  0.49417386  0.06965076  0.93039600     0.00600
C1403       C  0.50038977  0.10182826  0.94039948    -0.12400
C1404       C  0.50441148  0.12713632  0.91776085     0.01000
C1405       C  0.98474977  0.03002826  0.88583705     0.40400
C1406       C  0.50934241  0.16009289  0.92957537     0.37000
C1407       C  0.95549160  0.13297046  0.84140830     0.36700
C1408       C  0.55706964  0.21360866  0.83233409     0.37500
N1409       N  0.97866547  0.00403144  0.87665478    -0.43300
N1410       N  0.51332930  0.18650038  0.93904928    -0.43800
N1411       N  0.57682181  0.23138804  0.83210908    -0.41100
N1412       N  0.93410456  0.11794166  0.84389966    -0.42600
H1413       H  0.96784113  0.17756656  0.79784759     0.13600
H1414       H  0.54718613  0.16386298  0.87320976     0.10100
H1415       H  0.99550395  0.08213512  0.84861823     0.11100
H1416       H  0.50185676  0.10721775  0.96607264     0.17000
C1417       C  0.89688551  0.19399567  0.75019638    -0.01300
C1418       C  0.89691719  0.16001501  0.74358132     0.07300
C1419       C  0.92315766  0.14464505  0.73612895    -0.07200
C1420       C  0.94925667  0.16238265  0.73524350     0.04800
C1421       C  0.94936838  0.19678226  0.74066661    -0.14400
C1422       C  0.92302303  0.21203658  0.74876942    -0.07800
C1423       C  0.87034814  0.13911112  0.74569941     0.05700
C1424       C  0.85941347  0.12619498  0.71694233    -0.08900
C1425       C  0.83727835  0.10229009  0.71801171     0.00700
C1426       C  0.82611153  0.09055023  0.74827816     0.00600
C1427       C  0.83639373  0.10422946  0.77702164    -0.12400
C1428       C  0.85825857  0.12845537  0.77594684     0.01000
C1429       C  0.82702572  0.08927888  0.68784145     0.40400
C1430       C  0.86862207  0.14124234  0.80614827     0.37000
C1431       C  0.87038846  0.21072782  0.75866436     0.36700
C1432       C  0.97546343  0.14387817  0.73117227     0.37500
N1433       N  0.81886371  0.07874582  0.66366658    -0.43300
N1434       N  0.87673345  0.15169501  0.83037550    -0.43800
N1435       N  0.99596755  0.12815762  0.72789028    -0.41100
N1436       N  0.84917111  0.22417348  0.76556806    -0.42600
H1437       H  0.92286699  0.23802807  0.75432079     0.13600
H1438       H  0.92329826  0.11830980  0.73203350     0.10100
H1439       H  0.86878007  0.13416391  0.69364342     0.11100
H1440       H  0.82767789  0.09545992  0.80032342     0.17000
C1441       C  0.57708254  0.13789621  0.76751960    -0.01300
C1442       C  0.60579662  0.14851602  0.76089108     0.07300
C1443       C  0.61115433  0.18128436  0.75187018    -0.07200
C1444       C  0.58848485  0.20360631  0.74996020     0.04800
C1445       C  0.55970123  0.19341734  0.75798703    -0.14400
C1446       C  0.55452084  0.16015657  0.76590952    -0.07800
C1447       C  0.63023678  0.12525263  0.76083354     0.05700
C1448       C  0.64444544  0.11736993  0.73109658    -0.08900
C1449       C  0.66695937  0.09477855  0.72967140     0.00700
C1450       C  0.67561319  0.07967114  0.75835926     0.00600
C1451       C  0.66169462  0.08780773  0.78818671    -0.12400
C1452       C  0.63920159  0.11050739  0.78965200     0.01000
C1453       C  0.68074524  0.08713763  0.69852622     0.40400
C1454       C  0.62599775  0.11877087  0.82096935     0.37000
C1455       C  0.57005078  0.10394560  0.77460426     0.36700
C1456       C  0.59557082  0.23590883  0.73767215     0.37500
N1457       N  0.69181150  0.08091239  0.67358201    -0.43300
N1458       N  0.61541538  0.12541915  0.84606133    -0.43800
N1459       N  0.60233016  0.26120037  0.72689602    -0.41100
N1460       N  0.56431807  0.07674417  0.78020408    -0.42600
H1461       H  0.53261237  0.15118223  0.77026869     0.13600
H1462       H  0.63314419  0.18926594  0.74562889     0.10100
H1463       H  0.63766353  0.12862824  0.70889105     0.11100
H1464       H  0.66853514  0.07649116  0.81033210     0.17000
C1465       C  0.54133269  0.32725281  0.66645706    -0.01300
C1466       C  0.51534820  0.34248284  0.65853936     0.07300
C1467       C  0.98986718  0.33377232  0.67605922    -0.07200
C1468       C  0.98963040  0.31022344  0.70067502     0.04800
C1469       C  0.51580100  0.29560730  0.70969939    -0.14400
C1470       C  0.54139670  0.30436385  0.69203116    -0.07800
C1471       C  0.51332256  0.36603944  0.63097690     0.05700
C1472       C  0.99373076  0.35893376  0.60656928    -0.08900
C1473       C  0.98868308  0.38161268  0.58198920     0.00700
C1474       C  0.50409255  0.41178705  0.58079271     0.00600
C1475       C  0.52411017  0.41865288  0.60478341    -0.12400
C1476       C  0.52831536  0.39652076  0.63011323     0.01000
C1477       C  0.96639965  0.37417621  0.55944890     0.40400
C1478       C  0.54645133  0.40674126  0.65610795     0.37000
C1479       C  0.56779389  0.33332004  0.64752571     0.36700
C1480       C  0.96157995  0.29992250  0.71380842     0.37500
N1481       N  0.94841872  0.36828253  0.54151464    -0.43300
N1482       N  0.56085955  0.41512728  0.67700279    -0.43800
N1483       N  0.93868219  0.29214948  0.72347180    -0.41100
N1484       N  0.58892956  0.33823479  0.63219997    -0.42600
H1485       H  0.56139198  0.29271034  0.69764548     0.13600
H1486       H  0.96968295  0.34475108  0.66966040     0.10100
H1487       H  0.98162119  0.33591153  0.60734048     0.11100
H1488       H  0.53562450  0.44206233  0.60443038     0.17000
C1489       C  0.96634488  0.33247328  0.82061593    -0.01300
C1490       C  0.99158798  0.34699659  0.83306579     0.07300
C1491       C  0.51855962  0.33620714  0.82107145    -0.07200
C1492       C  0.52086499  0.31213735  0.79688339     0.04800
C1493       C  0.99570799  0.29753501  0.78430842    -0.14400
C1494       C  0.96862163  0.30763857  0.79686128    -0.07800
C1495       C  0.99082356  0.37232816  0.85950613     0.05700
C1496       C  0.97483984  0.36599905  0.88865270    -0.08900
C1497       C  0.97445742  0.38869107  0.91436962     0.00700
C1498       C  0.99154061  0.41769971  0.91201217     0.00600
C1499       C  0.50810585  0.42365518  0.88319689    -0.12400
C1500       C  0.50722101  0.40189053  0.85679861     0.01000
C1501       C  0.95563534  0.38214412  0.94250990     0.40400
C1502       C  0.52248234  0.41111903  0.82680242     0.37000
C1503       C  0.93788520  0.34276820  0.83152780     0.36700
C1504       C  0.54955790  0.30169680  0.78735690     0.37500
N1505       N  0.94043996  0.37701444  0.96500624    -0.43300
N1506       N  0.53460894  0.41855909  0.80272883    -0.43800
N1507       N  0.57298420  0.29409672  0.78060734    -0.41100
N1508       N  0.91506610  0.35095489  0.84038165    -0.42600
H1509       H  0.94916523  0.29601746  0.78820235     0.13600
H1510       H  0.53809733  0.34618469  0.83124959     0.10100
H1511       H  0.96251692  0.34324955  0.89136291     0.11100
H1512       H  0.52120652  0.44591489  0.88101827     0.17000
C1513       C  0.51381689  0.66971143  0.67266599    -0.01300
C1514       C  0.99012271  0.64744231  0.67286282     0.07300
C1515       C  0.96861257  0.64995792  0.69798297    -0.07200
C1516       C  0.96985616  0.67513711  0.72154975     0.04800
C1517       C  0.99243329  0.69873319  0.71965652    -0.14400
C1518       C  0.51467645  0.69503596  0.69575595    -0.07800
C1519       C  0.98746681  0.62225068  0.64644535     0.05700
C1520       C  0.50891755  0.59844409  0.64208829    -0.08900
C1521       C  0.50899063  0.57673327  0.61549712     0.00700
C1522       C  0.98707851  0.57824091  0.59261679     0.00600
C1523       C  0.96528605  0.60157741  0.59729400    -0.12400
C1524       C  0.96531543  0.62343906  0.62386221     0.01000
C1525       C  0.53214479  0.55350832  0.61181195     0.40400
C1526       C  0.94295081  0.64765192  0.62680030     0.37000
C1527       C  0.53689670  0.66808543  0.64801667     0.36700
C1528       C  0.94842924  0.67583017  0.74796718     0.37500
N1529       N  0.55059278  0.53476623  0.60886155    -0.43300
N1530       N  0.92500787  0.66705874  0.62917967    -0.43800
N1531       N  0.93156754  0.67628049  0.76951693    -0.41100
N1532       N  0.55537595  0.66669827  0.62826773    -0.42600
H1533       H  0.53255020  0.71258379  0.69461682     0.13600
H1534       H  0.95080811  0.63233344  0.69907286     0.10100
H1535       H  0.52606176  0.59731380  0.65919818     0.11100
H1536       H  0.94827056  0.60278638  0.58003793     0.17000
C1537       C  0.97502180  0.62126741  0.87833584    -0.01300
C1538       C  0.50310081  0.62769005  0.86489645     0.07300
C1539       C  0.52678826  0.61316834  0.87899958    -0.07200
C1540       C  0.52277658  0.59235781  0.90599064     0.04800
C1541       C  0.49471910  0.58615592  0.91960413    -0.14400
C1542       C  0.97104866  0.60081627  0.90556230    -0.07800
C1543       C  0.50817228  0.65320043  0.83941407     0.05700
C1544       C  0.00594911  0.68582804  0.84913327    -0.08900
C1545       C  0.50816478  0.71145288  0.82669603     0.00700
C1546       C  0.51233993  0.70484752  0.79275079     0.00600
C1547       C  0.51677712  0.67177850  0.78349164    -0.12400
C1548       C  0.51444006  0.64609743  0.80637066     0.01000
C1549       C  0.00588603  0.74370902  0.84082329     0.40400
C1550       C  0.51770493  0.61267447  0.79529110     0.37000
C1551       C  0.94996553  0.63509388  0.86415626     0.36700
C1552       C  0.54769683  0.57735237  0.91927035     0.37500
N1553       N  0.00477151  0.76833071  0.85487047    -0.43300
N1554       N  0.52029586  0.58588453  0.78630787    -0.43800
N1555       N  0.56761293  0.56527315  0.93001247    -0.41100
N1556       N  0.92994759  0.64609827  0.85258931    -0.44500
H1557       H  0.94938686  0.59550945  0.91537436     0.13600
H1558       H  0.54844828  0.61848393  0.86918754     0.10100
H1559       H  0.00195395  0.69129184  0.87477418     0.11100
H1560       H  0.52202009  0.66561347  0.75841199     0.17000
loop_ 
_geom_bond_atom_site_label_1 
_geom_bond_atom_site_label_2 
_geom_bond_distance 
_geom_bond_site_symmetry_2 
_ccdc_geom_bond_type 
N1            C6   1.356       .  A
N1          C395   1.356   1_554  A
N1           H33   1.040       .  S
N2           C10   1.353       .  A
N2          C789   1.351       .  A
N3            C7   1.352   1_655  A
N3          C398   1.353   1_655  A
N3           H34   1.041       .  S
N4           C12   1.352       .  A
N4          C791   1.352       .  A
C5          N391   1.356       .  A
C5           C13   1.387       .  A
C5           C21   1.422       .  A
C6           C22   1.422       .  A
C6           C14   1.387       .  A
C7           C15   1.386       .  A
C7           C24   1.415   1_455  A
C8          N393   1.354   1_454  A
C8           C23   1.417   1_455  A
C8           C16   1.387       .  A
C9          N782   1.350       .  A
C9           C21   1.412       .  A
C9           C17   1.386       .  A
C10          C24   1.415       .  A
C10          C18   1.386       .  A
C11         N784   1.352       .  A
C11          C19   1.386       .  A
C11          C22   1.415       .  A
C12          C20   1.386       .  A
C12          C23   1.414       .  A
C13         C404   1.383       .  A
C13          H25   1.082       .  S
C14         C403   1.383   1_554  A
C14          H26   1.082       .  S
C15         C406   1.379       .  A
C15          H27   1.082       .  S
C16         C405   1.380   1_554  A
C16          H28   1.082       .  S
C17         C798   1.371       .  A
C17          H29   1.082       .  S
C18         C797   1.371       .  A
C18          H30   1.082       .  S
C19         C800   1.373       .  A
C19          H31   1.082       .  S
C20         C799   1.373       .  A
C20          H32   1.082       .  S
C21        C1151   1.494       .  S
C22         C352   1.502       .  S
C23         C304   1.498   1_655  S
C24        C1108   1.499       .  S
C35          H36   1.111       .  S
C35          C41   1.530       .  S
C35          C40   1.548       .  S
C35         C819   1.523       .  S
C37          H38   1.108       .  S
C37          C42   1.565       .  S
C37          C44   1.544       .  S
C37         C823   1.534   1_455  S
C39         C815   1.523   1_455  S
C39          C42   1.384       .  D
C39         C227   1.495       .  S
C40          C43   1.381       .  D
C40         C251   1.497       .  S
C41         C824   1.368       .  D
C41         C323   1.493       .  S
C42         C275   1.502       .  S
C43         C817   1.534       .  S
C43         C203   1.495       .  S
C44         C821   1.368   1_455  D
C44         C299   1.506       .  S
N45          C50   1.355       .  A
N45          C49   1.355   1_545  A
N45          H77   1.038       .  S
N46          C53   1.353       .  A
N46          C54   1.352       .  A
N47          C52   1.355   1_565  A
N47          C51   1.355       .  A
N47          H78   1.039       .  S
N48          C55   1.353       .  A
N48          C56   1.352       .  A
C49          C57   1.386       .  A
C49          C65   1.418       .  A
C50          C66   1.421       .  A
C50          C58   1.388       .  A
C51          C59   1.388       .  A
C51          C68   1.421       .  A
C52          C67   1.417       .  A
C52          C60   1.387       .  A
C53          C65   1.414       .  A
C53          C61   1.386       .  A
C54          C68   1.416       .  A
C54          C62   1.387       .  A
C55          C63   1.387       .  A
C55          C66   1.416       .  A
C56          C64   1.386       .  A
C56          C67   1.415       .  A
C57          C58   1.375   1_565  A
C57          H69   1.082       .  S
C58          H70   1.082       .  S
C59          C60   1.376   1_565  A
C59          H71   1.082       .  S
C60          H72   1.082       .  S
C61          C62   1.373       .  A
C61          H73   1.082       .  S
C62          H74   1.082       .  S
C63          C64   1.373       .  A
C63          H75   1.082       .  S
C64          H76   1.082       .  S
C65         C179   1.493       .  S
C66         C256   1.492       .  S
C67         C280   1.491       .  S
C68         C155   1.497       .  S
C79          H80   1.098       .  S
C79          C85   1.537       .  S
C79          C84   1.561       .  S
C79         C863   1.543   1_455  S
C81          H82   1.111       .  S
C81          C86   1.542       .  S
C81          C88   1.546       .  S
C81         C867   1.536       .  S
C83         C859   1.543       .  S
C83          C86   1.377       .  D
C83         C136   1.493       .  S
C84          C87   1.396       .  D
C84         C160   1.534       .  S
C85         C868   1.377   1_455  D
C85         C376   1.519       .  S
C86         C184   1.505       .  S
C87         C861   1.536   1_455  S
C87         C107   1.491       .  S
C88         C865   1.377       .  D
C88         C347   1.493       .  S
O89         Cu97   1.988   1_565  S
O89         C879   1.275   1_455  A
O90        Cu487   1.979       .  S
O90         C880   1.273   1_455  A
O91         Cu97   1.997       .  S
O91         C881   1.278   1_455  A
O92        Cu487   2.005   1_565  S
O92         C882   1.277       .  A
O93        Cu488   1.994       .  S
O93         C102   1.276       .  A
O94         Cu98   2.000   1_545  S
O94         C101   1.276       .  A
O95        Cu488   2.030   1_545  S
O95         C100   1.280       .  A
O96         Cu98   2.026       .  S
O96          C99   1.280       .  A
Cu97        O480   1.979   1_554  S
Cu97        O482   2.006   1_544  S
Cu97       Cu878   2.376   1_445  S
Cu98        O483   1.994   1_554  S
Cu98        O485   2.030   1_564  S
Cu98       Cu877   2.376   1_565  S
C99         C892   1.483       .  S
C99         O869   1.275       .  A
C100       C1012   1.466       .  S
C100        O870   1.273       .  A
C101        C208   1.473       .  S
C101        O871   1.278       .  A
C102        C131   1.467       .  S
C102        O872   1.277       .  A
C103        C104   1.408       .  A
C103        C108   1.398       .  A
C103        C117   1.444       .  S
C104        C885   1.402       .  A
C104        C109   1.481       .  S
C105        C106   1.400       .  A
C105        C884   1.402       .  A
C105        H124   1.085       .  S
C106        C887   1.410       .  A
C106        C118   1.441       .  S
C107        C108   1.408       .  A
C107        C886   1.410       .  A
C108        H123   1.083       .  S
C109        C110   1.398       .  A
C109        C894   1.411   1_455  A
C110        C111   1.395       .  A
C110        H125   1.085       .  S
C111        C112   1.417   1_455  A
C111        C115   1.445       .  S
C112        C893   1.407       .  A
C112        C879   1.483       .  S
C113        C114   1.405       .  A
C113        C892   1.407       .  A
C113        H126   1.084       .  S
C114        C889   1.411       .  A
C114        C116   1.444       .  S
C115        N119   1.157       .  T
C116        N120   1.157       .  T
C117        N122   1.157       .  T
C118        N121   1.156       .  T
C127        C132   1.399       .  A
C127        C908   1.416   1_655  A
C127        C141   1.444       .  S
C128        C129   1.407       .  A
C128        C907   1.416       .  A
C128        C133   1.492       .  S
C129        C130   1.397       .  A
C129        H148   1.084       .  S
C130        C131   1.407       .  A
C130        C142   1.445       .  S
C131        C912   1.401       .  A
C132        C911   1.401   1_655  A
C132        H147   1.085       .  S
C133        C134   1.408       .  A
C133        C918   1.412       .  A
C134        C135   1.402       .  A
C134        H149   1.084       .  S
C135        C136   1.413       .  A
C135        C139   1.443       .  S
C136        C917   1.405       .  A
C137        C138   1.393       .  A
C137        C916   1.405   1_455  A
C137        H150   1.083       .  S
C138        C913   1.412   1_455  A
C138        C140   1.445       .  S
C139        N143   1.157       .  T
C140        N144   1.157       .  T
C141        N146   1.157       .  T
C142        N145   1.157       .  T
C151        C152   1.412       .  A
C151        C156   1.402       .  A
C151        C165   1.444       .  S
C152        C153   1.404       .  A
C152        C157   1.491       .  S
C153        C154   1.403       .  A
C153        H172   1.085       .  S
C154        C155   1.412       .  A
C154        C166   1.443       .  S
C155        C156   1.405       .  A
C156        H171   1.085       .  S
C157        C158   1.400       .  A
C157        C162   1.406       .  A
C158        C159   1.407       .  A
C158        H173   1.085       .  S
C159        C160   1.426       .  A
C159        C163   1.444       .  S
C160        C161   1.413       .  A
C161        C162   1.399       .  A
C161        H174   1.072       .  S
C162        C164   1.445       .  S
C163        N167   1.158       .  T
C164        N168   1.157       .  T
C165        N170   1.157       .  T
C166        N169   1.157       .  T
C175        C176   1.413       .  A
C175        C180   1.402       .  A
C175        C189   1.444       .  S
C176        C177   1.404       .  A
C176        C181   1.489       .  S
C177        C178   1.404       .  A
C177        H196   1.084       .  S
C178        C179   1.411       .  A
C178        C190   1.443       .  S
C179        C180   1.402       .  A
C180        H195   1.084       .  S
C181        C182   1.402       .  A
C181        C186   1.408       .  A
C182        C183   1.406       .  A
C182        H197   1.085       .  S
C183        C184   1.415       .  A
C183        C187   1.441       .  S
C184        C185   1.409       .  A
C185        C186   1.400       .  A
C185        H198   1.081       .  S
C186        C188   1.444       .  S
C187        N191   1.156       .  T
C188        N192   1.157       .  T
C189        N194   1.157       .  T
C190        N193   1.157       .  T
C199        C200   1.407       .  A
C199        C204   1.404       .  A
C199        C993   1.442       .  S
C200        C201   1.395       .  A
C200        C205   1.478       .  S
C201        C202   1.388       .  A
C201        H220   1.087       .  S
C202        C203   1.418       .  A
C202        C214   1.438       .  S
C203        C204   1.411       .  A
C204        H219   1.084       .  S
C205        C210   1.412       .  A
C205        C986   1.401       .  A
C206        C207   1.393   1_655  A
C206        C985   1.401       .  A
C206        H221   1.085   1_655  S
C207        C988   1.412   1_455  A
C207        C211   1.445       .  S
C208        C209   1.405       .  A
C208        C987   1.412       .  A
C209        C210   1.402       .  A
C209        H222   1.085       .  S
C210        C212   1.444       .  S
C211        N215   1.157       .  T
C212        N216   1.157       .  T
C213        C979   1.442       .  S
C213        N218   1.157       .  T
C214        N217   1.156       .  T
C223        C228   1.389       .  A
C223       C1004   1.407       .  A
C223        C237   1.445       .  S
C224        C225   1.409       .  A
C224       C1003   1.407   1_455  A
C224        C229   1.486       .  S
C225        C226   1.406       .  A
C225        H244   1.084       .  S
C226        C227   1.411       .  A
C226        C238   1.443       .  S
C227       C1008   1.405   1_455  A
C228       C1007   1.405       .  A
C228        H243   1.078       .  S
C229        C234   1.410       .  A
C229       C1010   1.408   1_455  A
C230        C231   1.400       .  A
C230       C1009   1.408       .  A
C230        H245   1.085       .  S
C231       C1012   1.406       .  A
C231        C235   1.443       .  S
C232        C233   1.401   1_655  A
C232       C1011   1.406       .  A
C232        C880   1.466       .  S
C233        C234   1.398       .  A
C233        H246   1.083       .  S
C234        C236   1.444       .  S
C235        N239   1.157       .  T
C236        N240   1.157       .  T
C237        N242   1.157       .  T
C238        N241   1.157       .  T
C247        C248   1.410       .  A
C247        C252   1.405       .  A
C247        C261   1.443       .  S
C248        C249   1.398       .  A
C248        C253   1.485       .  S
C249        C250   1.397       .  A
C249        H268   1.085       .  S
C250        C251   1.418       .  A
C250        C262   1.443       .  S
C251        C252   1.405       .  A
C252        H267   1.082       .  S
C253        C254   1.403       .  A
C253        C258   1.411       .  A
C254        C255   1.402       .  A
C254        H269   1.085       .  S
C255        C256   1.411       .  A
C255        C259   1.443       .  S
C256        C257   1.403       .  A
C257        C258   1.402       .  A
C257        H270   1.085       .  S
C258        C260   1.443       .  S
C259        N263   1.157       .  T
C260        N264   1.157       .  T
C261        N266   1.157       .  T
C262        N265   1.157       .  T
C271        C272   1.408       .  A
C271        C276   1.398       .  A
C271        C285   1.444       .  S
C272        C273   1.403       .  A
C272        C277   1.488       .  S
C273        C274   1.405       .  A
C273        H292   1.085       .  S
C274        C275   1.416       .  A
C274        C286   1.440       .  S
C275        C276   1.409       .  A
C276        H291   1.081       .  S
C277        C278   1.404       .  A
C277        C282   1.412       .  A
C278        C279   1.401       .  A
C278        H293   1.085       .  S
C279        C280   1.410       .  A
C279        C283   1.443       .  S
C280        C281   1.403       .  A
C281        C282   1.403       .  A
C281        H294   1.084       .  S
C282        C284   1.444       .  S
C283        N287   1.157       .  T
C284        N288   1.157       .  T
C285        N290   1.157       .  T
C286        N289   1.157       .  T
C295        C296   1.414       .  A
C295        C300   1.410       .  A
C295        C309   1.443       .  S
C296       C1077   1.399   1_455  A
C296        C301   1.497       .  S
C297        C298   1.398       .  A
C297       C1076   1.399       .  A
C297        H316   1.085       .  S
C298       C1079   1.423       .  A
C298        C310   1.443       .  S
C299        C300   1.406       .  A
C299       C1078   1.423   1_455  A
C300        H315   1.081       .  S
C301        C306   1.413       .  A
C301       C1082   1.408   1_455  A
C302        C303   1.402       .  A
C302       C1081   1.408       .  A
C302        H317   1.085       .  S
C303       C1084   1.411       .  A
C303        C307   1.444       .  S
C304        C305   1.406       .  A
C304       C1083   1.411   1_455  A
C305        C306   1.403       .  A
C305        H318   1.085       .  S
C306        C308   1.443       .  S
C307        N311   1.157       .  T
C308        N312   1.157       .  T
C309        N314   1.157       .  T
C310        N313   1.157       .  T
C319        C320   1.416       .  A
C319        C324   1.406       .  A
C319        C333   1.443       .  S
C320       C1101   1.400       .  A
C320        C325   1.496       .  S
C321        C322   1.396       .  A
C321       C1100   1.400   1_455  A
C321        H340   1.085       .  S
C322       C1103   1.415   1_455  A
C322        C334   1.440       .  S
C323        C324   1.404       .  A
C323       C1102   1.415       .  A
C324        H339   1.084       .  S
C325        C326   1.405       .  A
C325       C1110   1.415       .  A
C326        C327   1.402       .  A
C326        H341   1.084       .  S
C327        C328   1.413       .  A
C327        C331   1.443       .  S
C328       C1109   1.405       .  A
C328        C804   1.499       .  S
C329        C330   1.401       .  A
C329       C1108   1.405   1_455  A
C329        H342   1.085       .  S
C330       C1105   1.415   1_455  A
C330        C332   1.445       .  S
C331        N335   1.157       .  T
C332        N336   1.157       .  T
C333        N338   1.157       .  T
C334        N337   1.155       .  T
C343        C348   1.401       .  A
C343       C1124   1.412   1_455  A
C343        C357   1.445       .  S
C344        C345   1.410       .  A
C344       C1123   1.412       .  A
C344        C349   1.499       .  S
C345        C346   1.411       .  A
C345        H364   1.084       .  S
C346        C347   1.409       .  A
C346        C358   1.442       .  S
C347       C1128   1.404       .  A
C348       C1127   1.404   1_455  A
C348        H363   1.084       .  S
C349        C354   1.414       .  A
C349       C1130   1.405       .  A
C350        C351   1.404       .  A
C350       C1129   1.405   1_455  A
C350        H365   1.085       .  S
C351       C1132   1.415   1_455  A
C351        C355   1.444       .  S
C352        C353   1.405       .  A
C352       C1131   1.415       .  A
C353        C354   1.407       .  A
C353        H366   1.084       .  S
C354        C356   1.443       .  S
C355        N359   1.157       .  T
C356        N360   1.157       .  T
C357        N362   1.157       .  T
C358        N361   1.157       .  T
C367        C372   1.403       .  A
C367       C1148   1.413       .  A
C367        C381   1.444       .  S
C368        C369   1.403       .  A
C368       C1147   1.413   1_455  A
C368        C373   1.489       .  S
C369        C370   1.405       .  A
C369        H388   1.084       .  S
C370        C371   1.413   1_455  A
C370        C382   1.443       .  S
C371       C1152   1.403       .  A
C371        C801   1.494       .  S
C372       C1151   1.403       .  A
C372        H387   1.084       .  S
C373        C378   1.408       .  A
C373       C1154   1.390       .  A
C374       C1153   1.390       .  A
C374       C1155   1.396       .  A
C374        H389   1.086       .  S
C375        C376   1.427       .  A
C375       C1154   1.396       .  A
C375       C1159   1.438       .  S
C376        C377   1.414       .  A
C377        C378   1.410       .  A
C377        H390   1.080       .  S
C378        C380   1.442       .  S
C379       C1155   1.438       .  S
C379        N383   1.156       .  T
C380        N384   1.157       .  T
C381        N386   1.157       .  T
C382        N385   1.157       .  T
N391        C396   1.356       .  A
N391        H423   1.040       .  S
N392       C1179   1.350       .  A
N392        C400   1.353       .  A
N393        C397   1.352   1_655  A
N393        H424   1.041   1_556  S
N394       C1181   1.352       .  A
N394        C402   1.352       .  A
C395        C403   1.387       .  A
C395        C411   1.422       .  A
C396        C412   1.422       .  A
C396        C404   1.387       .  A
C397        C405   1.386       .  A
C397        C414   1.416   1_455  A
C398        C413   1.417   1_455  A
C398        C406   1.387       .  A
C399       N1172   1.350       .  A
C399        C411   1.412       .  A
C399        C407   1.386       .  A
C400        C414   1.415       .  A
C400        C408   1.386       .  A
C401       N1174   1.352       .  A
C401        C409   1.386       .  A
C401        C412   1.415       .  A
C402        C410   1.386       .  A
C402        C413   1.414       .  A
C403        H415   1.082       .  S
C404        H416   1.082       .  S
C405        H417   1.082       .  S
C406        H418   1.082       .  S
C407       C1188   1.371       .  A
C407        H419   1.082       .  S
C408       C1187   1.371       .  A
C408        H420   1.082       .  S
C409       C1190   1.373       .  A
C409        H421   1.082       .  S
C410       C1189   1.373       .  A
C410        H422   1.082       .  S
C411       C1541   1.494       .  S
C412        C742   1.502       .  S
C413        C694   1.498   1_655  S
C414       C1498   1.499       .  S
C425        H426   1.111       .  S
C425        C431   1.530       .  S
C425        C430   1.548       .  S
C425       C1209   1.522       .  S
C427        H428   1.108       .  S
C427       C1213   1.534   1_455  S
C427        C432   1.565       .  S
C427        C434   1.544       .  S
C429       C1205   1.522   1_455  S
C429        C432   1.384       .  D
C429        C617   1.494       .  S
C430        C433   1.381       .  D
C430        C641   1.497       .  S
C431       C1214   1.368       .  D
C431        C713   1.493       .  S
C432        C665   1.502       .  S
C433       C1207   1.534       .  S
C433        C593   1.495       .  S
C434       C1211   1.368   1_455  D
C434        C689   1.506       .  S
N435        C440   1.355       .  A
N435        C439   1.355   1_545  A
N435        H467   1.038       .  S
N436        C443   1.353       .  A
N436        C444   1.352       .  A
N437        C442   1.355   1_565  A
N437        C441   1.355       .  A
N437        H468   1.039       .  S
N438        C445   1.353       .  A
N438        C446   1.352       .  A
C439        C447   1.386       .  A
C439        C455   1.418       .  A
C440        C456   1.420       .  A
C440        C448   1.388       .  A
C441        C449   1.388       .  A
C441        C458   1.421       .  A
C442        C457   1.417       .  A
C442        C450   1.387       .  A
C443        C455   1.415       .  A
C443        C451   1.386       .  A
C444        C458   1.416       .  A
C444        C452   1.387       .  A
C445        C453   1.387       .  A
C445        C456   1.416       .  A
C446        C454   1.386       .  A
C446        C457   1.415       .  A
C447        C448   1.375   1_565  A
C447        H459   1.082       .  S
C448        H460   1.082       .  S
C449        C450   1.376   1_565  A
C449        H461   1.082       .  S
C450        H462   1.082       .  S
C451        C452   1.373       .  A
C451        H463   1.082       .  S
C452        H464   1.082       .  S
C453        C454   1.373       .  A
C453        H465   1.082       .  S
C454        H466   1.082       .  S
C455        C569   1.493       .  S
C456        C646   1.492       .  S
C457        C670   1.491       .  S
C458        C545   1.497       .  S
C469        H470   1.098       .  S
C469        C475   1.537       .  S
C469        C474   1.561       .  S
C469       C1253   1.542   1_455  S
C471        H472   1.111       .  S
C471       C1257   1.536       .  S
C471        C476   1.542       .  S
C471        C478   1.546       .  S
C473       C1249   1.542       .  S
C473        C476   1.376       .  D
C473        C526   1.493       .  S
C474        C477   1.396       .  D
C474        C550   1.535       .  S
C475       C1258   1.377   1_455  D
C475        C766   1.518       .  S
C476        C574   1.505       .  S
C477       C1251   1.536   1_455  S
C477        C497   1.491       .  S
C478       C1255   1.377       .  D
C478        C737   1.493       .  S
O479       Cu487   1.987   1_565  S
O479       C1269   1.275   1_455  A
O480       C1270   1.273   1_455  A
O481       Cu487   1.997       .  S
O481       C1271   1.278   1_455  A
O482       C1272   1.277       .  A
O483        C492   1.276       .  A
O484       Cu488   2.000   1_545  S
O484        C491   1.276       .  A
O485        C490   1.280       .  A
O486       Cu488   2.027       .  S
O486        C489   1.280       .  A
Cu487     Cu1268   2.376   1_445  S
Cu488     Cu1267   2.376   1_565  S
C489       C1282   1.483       .  S
C489       O1259   1.275       .  A
C490       C1402   1.466       .  S
C490       O1260   1.273       .  A
C491        C598   1.473       .  S
C491       O1261   1.278       .  A
C492        C521   1.467       .  S
C492       O1262   1.277       .  A
C493        C494   1.407       .  A
C493        C498   1.398       .  A
C493        C507   1.443       .  S
C494       C1275   1.402       .  A
C494        C499   1.480       .  S
C495       C1274   1.402       .  A
C495        C496   1.400       .  A
C495        H514   1.085       .  S
C496       C1277   1.410       .  A
C496        C508   1.441       .  S
C497       C1276   1.410       .  A
C497        C498   1.408       .  A
C498        H513   1.083       .  S
C499        C500   1.398       .  A
C499       C1284   1.411   1_455  A
C500        C501   1.395       .  A
C500        H515   1.085       .  S
C501        C502   1.417   1_455  A
C501        C505   1.445       .  S
C502       C1283   1.407       .  A
C502       C1269   1.483       .  S
C503       C1282   1.407       .  A
C503        C504   1.405       .  A
C503        H516   1.084       .  S
C504       C1279   1.411       .  A
C504        C506   1.444       .  S
C505        N509   1.157       .  T
C506        N510   1.157       .  T
C507        N512   1.157       .  T
C508        N511   1.156       .  T
C517       C1298   1.416   1_655  A
C517        C522   1.399       .  A
C517        C531   1.444       .  S
C518       C1297   1.416       .  A
C518        C519   1.407       .  A
C518        C523   1.492       .  S
C519        C520   1.397       .  A
C519        H538   1.084       .  S
C520        C521   1.407       .  A
C520        C532   1.445       .  S
C521       C1302   1.401       .  A
C522       C1301   1.401   1_655  A
C522        H537   1.085       .  S
C523        C524   1.408       .  A
C523       C1308   1.412       .  A
C524        C525   1.402       .  A
C524        H539   1.084       .  S
C525        C526   1.413       .  A
C525        C529   1.443       .  S
C526       C1307   1.405       .  A
C527       C1306   1.405   1_455  A
C527        C528   1.393       .  A
C527        H540   1.083       .  S
C528       C1303   1.412   1_455  A
C528        C530   1.445       .  S
C529        N533   1.157       .  T
C530        N534   1.157       .  T
C531        N536   1.157       .  T
C532        N535   1.157       .  T
C541        C542   1.413       .  A
C541        C546   1.402       .  A
C541        C555   1.444       .  S
C542        C543   1.404       .  A
C542        C547   1.491       .  S
C543        C544   1.403       .  A
C543        H562   1.085       .  S
C544        C545   1.412       .  A
C544        C556   1.443       .  S
C545        C546   1.405       .  A
C546        H561   1.085       .  S
C547        C548   1.400       .  A
C547        C552   1.406       .  A
C548        C549   1.407       .  A
C548        H563   1.085       .  S
C549        C550   1.426       .  A
C549        C553   1.443       .  S
C550        C551   1.413       .  A
C551        C552   1.399       .  A
C551        H564   1.072       .  S
C552        C554   1.445       .  S
C553        N557   1.158       .  T
C554        N558   1.157       .  T
C555        N560   1.157       .  T
C556        N559   1.157       .  T
C565        C566   1.413       .  A
C565        C570   1.402       .  A
C565        C579   1.444       .  S
C566        C567   1.404       .  A
C566        C571   1.489       .  S
C567        C568   1.404       .  A
C567        H586   1.084       .  S
C568        C569   1.411       .  A
C568        C580   1.443       .  S
C569        C570   1.402       .  A
C570        H585   1.084       .  S
C571        C572   1.402       .  A
C571        C576   1.408       .  A
C572        C573   1.406       .  A
C572        H587   1.085       .  S
C573        C574   1.415       .  A
C573        C577   1.441       .  S
C574        C575   1.409       .  A
C575        C576   1.399       .  A
C575        H588   1.081       .  S
C576        C578   1.444       .  S
C577        N581   1.156       .  T
C578        N582   1.157       .  T
C579        N584   1.157       .  T
C580        N583   1.157       .  T
C589        C590   1.407       .  A
C589        C594   1.404       .  A
C589       C1383   1.442       .  S
C590        C591   1.395       .  A
C590        C595   1.478       .  S
C591        C592   1.389       .  A
C591        H610   1.086       .  S
C592        C593   1.418       .  A
C592        C604   1.438       .  S
C593        C594   1.411       .  A
C594        H609   1.084       .  S
C595       C1376   1.401       .  A
C595        C600   1.412       .  A
C596       C1375   1.401       .  A
C596        C597   1.393   1_655  A
C596        H611   1.085   1_655  S
C597       C1378   1.412   1_455  A
C597        C601   1.445       .  S
C598       C1377   1.412       .  A
C598        C599   1.405       .  A
C599        C600   1.402       .  A
C599        H612   1.085       .  S
C600        C602   1.444       .  S
C601        N605   1.157       .  T
C602        N606   1.157       .  T
C603       C1369   1.442       .  S
C603        N608   1.157       .  T
C604        N607   1.156       .  T
C613       C1394   1.407       .  A
C613        C618   1.390       .  A
C613        C627   1.445       .  S
C614       C1393   1.407   1_455  A
C614        C615   1.409       .  A
C614        C619   1.487       .  S
C615        C616   1.406       .  A
C615        H634   1.084       .  S
C616        C617   1.411       .  A
C616        C628   1.443       .  S
C617       C1398   1.405   1_455  A
C618       C1397   1.405       .  A
C618        H633   1.078       .  S
C619       C1400   1.409   1_455  A
C619        C624   1.410       .  A
C620       C1399   1.409       .  A
C620        C621   1.400       .  A
C620        H635   1.085       .  S
C621       C1402   1.406       .  A
C621        C625   1.443       .  S
C622       C1401   1.406       .  A
C622        C623   1.401   1_655  A
C622       C1270   1.466       .  S
C623        C624   1.398       .  A
C623        H636   1.083       .  S
C624        C626   1.444       .  S
C625        N629   1.157       .  T
C626        N630   1.157       .  T
C627        N632   1.157       .  T
C628        N631   1.157       .  T
C637        C638   1.410       .  A
C637        C642   1.405       .  A
C637        C651   1.443       .  S
C638        C639   1.398       .  A
C638        C643   1.485       .  S
C639        C640   1.397       .  A
C639        H658   1.085       .  S
C640        C641   1.418       .  A
C640        C652   1.443       .  S
C641        C642   1.405       .  A
C642        H657   1.082       .  S
C643        C644   1.403       .  A
C643        C648   1.411       .  A
C644        C645   1.402       .  A
C644        H659   1.085       .  S
C645        C646   1.411       .  A
C645        C649   1.443       .  S
C646        C647   1.403       .  A
C647        C648   1.402       .  A
C647        H660   1.085       .  S
C648        C650   1.443       .  S
C649        N653   1.157       .  T
C650        N654   1.157       .  T
C651        N656   1.157       .  T
C652        N655   1.157       .  T
C661        C662   1.408       .  A
C661        C666   1.398       .  A
C661        C675   1.444       .  S
C662        C663   1.403       .  A
C662        C667   1.488       .  S
C663        C664   1.405       .  A
C663        H682   1.085       .  S
C664        C665   1.416       .  A
C664        C676   1.440       .  S
C665        C666   1.409       .  A
C666        H681   1.081       .  S
C667        C668   1.404       .  A
C667        C672   1.413       .  A
C668        C669   1.401       .  A
C668        H683   1.085       .  S
C669        C670   1.410       .  A
C669        C673   1.443       .  S
C670        C671   1.403       .  A
C671        C672   1.403       .  A
C671        H684   1.084       .  S
C672        C674   1.444       .  S
C673        N677   1.157       .  T
C674        N678   1.157       .  T
C675        N680   1.157       .  T
C676        N679   1.157       .  T
C685        C686   1.414       .  A
C685        C690   1.409       .  A
C685        C699   1.443       .  S
C686       C1467   1.399   1_455  A
C686        C691   1.496       .  S
C687       C1466   1.399       .  A
C687        C688   1.398       .  A
C687        H706   1.086       .  S
C688       C1469   1.423       .  A
C688        C700   1.443       .  S
C689       C1468   1.423   1_455  A
C689        C690   1.406       .  A
C690        H705   1.081       .  S
C691       C1472   1.407   1_455  A
C691        C696   1.413       .  A
C692       C1471   1.407       .  A
C692        C693   1.402       .  A
C692        H707   1.085       .  S
C693       C1474   1.411       .  A
C693        C697   1.444       .  S
C694       C1473   1.411   1_455  A
C694        C695   1.406       .  A
C695        C696   1.403       .  A
C695        H708   1.085       .  S
C696        C698   1.443       .  S
C697        N701   1.157       .  T
C698        N702   1.157       .  T
C699        N704   1.157       .  T
C700        N703   1.157       .  T
C709        C710   1.416       .  A
C709        C714   1.406       .  A
C709        C723   1.443       .  S
C710       C1491   1.401       .  A
C710        C715   1.496       .  S
C711       C1490   1.401   1_455  A
C711        C712   1.396       .  A
C711        H730   1.085       .  S
C712       C1493   1.416   1_455  A
C712        C724   1.440       .  S
C713       C1492   1.416       .  A
C713        C714   1.404       .  A
C714        H729   1.084       .  S
C715        C716   1.406       .  A
C715       C1500   1.415       .  A
C716        C717   1.402       .  A
C716        H731   1.084       .  S
C717        C718   1.413       .  A
C717        C721   1.443       .  S
C718       C1499   1.405       .  A
C718       C1194   1.499       .  S
C719       C1498   1.405   1_455  A
C719        C720   1.401       .  A
C719        H732   1.085       .  S
C720       C1495   1.415   1_455  A
C720        C722   1.445       .  S
C721        N725   1.157       .  T
C722        N726   1.157       .  T
C723        N728   1.157       .  T
C724        N727   1.155       .  T
C733       C1514   1.412   1_455  A
C733        C738   1.401       .  A
C733        C747   1.445       .  S
C734       C1513   1.412       .  A
C734        C735   1.410       .  A
C734        C739   1.499       .  S
C735        C736   1.411       .  A
C735        H754   1.084       .  S
C736        C737   1.409       .  A
C736        C748   1.442       .  S
C737       C1518   1.404       .  A
C738       C1517   1.404   1_455  A
C738        H753   1.084       .  S
C739       C1520   1.405       .  A
C739        C744   1.414       .  A
C740       C1519   1.405   1_455  A
C740        C741   1.404       .  A
C740        H755   1.085       .  S
C741       C1522   1.415   1_455  A
C741        C745   1.444       .  S
C742       C1521   1.415       .  A
C742        C743   1.405       .  A
C743        C744   1.407       .  A
C743        H756   1.084       .  S
C744        C746   1.443       .  S
C745        N749   1.157       .  T
C746        N750   1.157       .  T
C747        N752   1.157       .  T
C748        N751   1.157       .  T
C757       C1538   1.413       .  A
C757        C762   1.403       .  A
C757        C771   1.444       .  S
C758       C1537   1.413   1_455  A
C758        C759   1.403       .  A
C758        C763   1.489       .  S
C759        C760   1.405       .  A
C759        H778   1.084       .  S
C760        C761   1.413   1_455  A
C760        C772   1.443       .  S
C761       C1542   1.403       .  A
C761       C1191   1.494       .  S
C762       C1541   1.403       .  A
C762        H777   1.084       .  S
C763       C1544   1.391       .  A
C763        C768   1.408       .  A
C764       C1543   1.391       .  A
C764       C1545   1.396       .  A
C764        H779   1.086       .  S
C765       C1544   1.396       .  A
C765        C766   1.427       .  A
C765       C1549   1.438       .  S
C766        C767   1.414       .  A
C767        C768   1.410       .  A
C767        H780   1.080       .  S
C768        C770   1.442       .  S
C769       C1545   1.438       .  S
C769        N773   1.156       .  T
C770        N774   1.157       .  T
C771        N776   1.157       .  T
C772        N775   1.157       .  T
N781        C786   1.356       .  A
N781       C1175   1.356   1_554  A
N781        H813   1.040       .  S
N782        C790   1.353       .  A
N783       C1178   1.353       .  A
N783        C787   1.352       .  A
N783        H814   1.041       .  S
N784        C792   1.352       .  A
C785       N1171   1.356       .  A
C785        C793   1.387   1_655  A
C785        C801   1.422       .  A
C786        C802   1.422       .  A
C786        C794   1.387   1_655  A
C787        C795   1.386       .  A
C787        C804   1.415       .  A
C788       N1173   1.354   1_554  A
C788        C803   1.417       .  A
C788        C796   1.387       .  A
C789        C801   1.412       .  A
C789        C797   1.386       .  A
C790        C804   1.415       .  A
C790        C798   1.386       .  A
C791        C799   1.386       .  A
C791        C802   1.415       .  A
C792        C800   1.386       .  A
C792        C803   1.414       .  A
C793       C1184   1.383       .  A
C793        H805   1.082       .  S
C794       C1183   1.383   1_554  A
C794        H806   1.082       .  S
C795       C1186   1.379       .  A
C795        H807   1.082       .  S
C796       C1185   1.380   1_554  A
C796        H808   1.082       .  S
C797        H809   1.082       .  S
C798        H810   1.082       .  S
C799        H811   1.082       .  S
C800        H812   1.082       .  S
C802       C1132   1.502       .  S
C803       C1084   1.498       .  S
C815        H816   1.111       .  S
C815        C821   1.530       .  S
C815        C820   1.548       .  S
C817        H818   1.108       .  S
C817        C822   1.565       .  S
C817        C824   1.544       .  S
C819        C822   1.384       .  D
C819       C1007   1.495       .  S
C820        C823   1.381       .  D
C820       C1031   1.497       .  S
C821       C1103   1.493       .  S
C822       C1055   1.502       .  S
C823        C983   1.495       .  S
C824       C1079   1.506       .  S
N825        C830   1.355       .  A
N825        C829   1.355   1_545  A
N825        H857   1.038       .  S
N826        C833   1.353       .  A
N826        C834   1.352       .  A
N827        C832   1.355   1_565  A
N827        C831   1.355       .  A
N827        H858   1.039       .  S
N828        C835   1.353       .  A
N828        C836   1.352       .  A
C829        C837   1.386       .  A
C829        C845   1.418       .  A
C830        C846   1.421       .  A
C830        C838   1.388       .  A
C831        C839   1.388       .  A
C831        C848   1.421       .  A
C832        C847   1.417       .  A
C832        C840   1.387       .  A
C833        C845   1.414       .  A
C833        C841   1.386       .  A
C834        C848   1.416       .  A
C834        C842   1.387       .  A
C835        C843   1.387       .  A
C835        C846   1.416       .  A
C836        C844   1.386       .  A
C836        C847   1.415       .  A
C837        C838   1.375   1_565  A
C837        H849   1.082       .  S
C838        H850   1.082       .  S
C839        C840   1.376   1_565  A
C839        H851   1.082       .  S
C840        H852   1.082       .  S
C841        C842   1.373       .  A
C841        H853   1.082       .  S
C842        H854   1.082       .  S
C843        C844   1.373       .  A
C843        H855   1.082       .  S
C844        H856   1.082       .  S
C845        C959   1.493       .  S
C846       C1036   1.492       .  S
C847       C1060   1.491       .  S
C848        C935   1.497       .  S
C859        H860   1.098       .  S
C859        C865   1.537       .  S
C859        C864   1.561       .  S
C861        H862   1.111       .  S
C861        C866   1.542       .  S
C861        C868   1.546       .  S
C863        C866   1.377       .  D
C863        C916   1.493       .  S
C864        C867   1.396       .  D
C864        C940   1.534       .  S
C865       C1156   1.519       .  S
C866        C964   1.505       .  S
C867        C887   1.491       .  S
C868       C1127   1.493       .  S
O869       Cu877   1.988   1_565  S
O870      Cu1267   1.979       .  S
O871       Cu877   1.997       .  S
O872      Cu1267   2.005   1_565  S
O873      Cu1268   1.994       .  S
O873        C882   1.276   1_655  A
O874       Cu878   2.000   1_545  S
O874        C881   1.276       .  A
O875      Cu1268   2.030   1_545  S
O875        C880   1.280       .  A
O876       Cu878   2.026       .  S
O876        C879   1.280       .  A
Cu877      O1260   1.979   1_554  S
Cu877      O1262   2.006   1_544  S
Cu878      O1263   1.994   1_554  S
Cu878      O1265   2.030   1_564  S
C881        C988   1.473       .  S
C882        C911   1.467       .  S
C883        C884   1.408       .  A
C883        C888   1.398       .  A
C883        C897   1.444       .  S
C884        C889   1.481       .  S
C885        C886   1.400       .  A
C885        H904   1.085   1_455  S
C886        C898   1.441       .  S
C887        C888   1.408       .  A
C888        H903   1.083       .  S
C889        C890   1.398       .  A
C890        C891   1.395       .  A
C890        H905   1.085       .  S
C891        C892   1.417       .  A
C891        C895   1.445       .  S
C893        C894   1.405       .  A
C893        H906   1.084       .  S
C894        C896   1.444       .  S
C895        N899   1.157       .  T
C896        N900   1.157       .  T
C897        N902   1.157       .  T
C898        N901   1.156       .  T
C907        C912   1.399       .  A
C907        C921   1.444       .  S
C908        C909   1.407       .  A
C908        C913   1.492   1_455  S
C909        C910   1.397       .  A
C909        H928   1.084       .  S
C910        C911   1.407       .  A
C910        C922   1.445       .  S
C912        H927   1.085       .  S
C913        C914   1.408       .  A
C914        C915   1.402       .  A
C914        H929   1.084       .  S
C915        C916   1.413       .  A
C915        C919   1.443       .  S
C917        C918   1.393       .  A
C917        H930   1.083       .  S
C918        C920   1.445       .  S
C919        N923   1.157       .  T
C920        N924   1.157       .  T
C921        N926   1.157       .  T
C922        N925   1.157       .  T
C931        C932   1.412       .  A
C931        C936   1.402       .  A
C931        C945   1.444       .  S
C932        C933   1.404       .  A
C932        C937   1.491       .  S
C933        C934   1.403       .  A
C933        H952   1.085       .  S
C934        C935   1.412       .  A
C934        C946   1.443       .  S
C935        C936   1.405       .  A
C936        H951   1.085       .  S
C937        C938   1.400       .  A
C937        C942   1.406       .  A
C938        C939   1.407       .  A
C938        H953   1.085       .  S
C939        C940   1.426       .  A
C939        C943   1.444       .  S
C940        C941   1.413       .  A
C941        C942   1.399       .  A
C941        H954   1.072       .  S
C942        C944   1.445       .  S
C943        N947   1.158       .  T
C944        N948   1.157       .  T
C945        N950   1.157       .  T
C946        N949   1.157       .  T
C955        C956   1.413       .  A
C955        C960   1.402       .  A
C955        C969   1.444       .  S
C956        C957   1.404       .  A
C956        C961   1.489       .  S
C957        C958   1.404       .  A
C957        H976   1.084       .  S
C958        C959   1.411       .  A
C958        C970   1.443       .  S
C959        C960   1.402       .  A
C960        H975   1.084       .  S
C961        C962   1.402       .  A
C961        C966   1.408       .  A
C962        C963   1.406       .  A
C962        H977   1.085       .  S
C963        C964   1.415       .  A
C963        C967   1.441       .  S
C964        C965   1.409       .  A
C965        C966   1.400       .  A
C965        H978   1.081       .  S
C966        C968   1.444       .  S
C967        N971   1.156       .  T
C968        N972   1.157       .  T
C969        N974   1.157       .  T
C970        N973   1.157       .  T
C979        C980   1.407       .  A
C979        C984   1.404       .  A
C980        C981   1.395   1_655  A
C980        C985   1.478       .  S
C981        C982   1.388       .  A
C981       H1000   1.087       .  S
C982        C983   1.418   1_455  A
C982        C994   1.438       .  S
C983        C984   1.411       .  A
C984        H999   1.084       .  S
C985        C990   1.412       .  A
C986        C987   1.393       .  A
C986       H1001   1.085       .  S
C987        C991   1.445       .  S
C988        C989   1.405       .  A
C989        C990   1.402       .  A
C989       H1002   1.085       .  S
C990        C992   1.444       .  S
C991        N995   1.157       .  T
C992        N996   1.157       .  T
C993        N998   1.157       .  T
C994        N997   1.156       .  T
C1003      C1008   1.389       .  A
C1003      C1017   1.445       .  S
C1004      C1005   1.409       .  A
C1004      C1009   1.486       .  S
C1005      C1006   1.406       .  A
C1005      H1024   1.084       .  S
C1006      C1007   1.411       .  A
C1006      C1018   1.443       .  S
C1008      H1023   1.078       .  S
C1009      C1014   1.410       .  A
C1010      C1011   1.400       .  A
C1010      H1025   1.085       .  S
C1011      C1015   1.443       .  S
C1012      C1013   1.401       .  A
C1013      C1014   1.398       .  A
C1013      H1026   1.083       .  S
C1014      C1016   1.444       .  S
C1015      N1019   1.157       .  T
C1016      N1020   1.157       .  T
C1017      N1022   1.157       .  T
C1018      N1021   1.157       .  T
C1027      C1028   1.410       .  A
C1027      C1032   1.405       .  A
C1027      C1041   1.443       .  S
C1028      C1029   1.398       .  A
C1028      C1033   1.485       .  S
C1029      C1030   1.397       .  A
C1029      H1048   1.085       .  S
C1030      C1031   1.418       .  A
C1030      C1042   1.443       .  S
C1031      C1032   1.405       .  A
C1032      H1047   1.082       .  S
C1033      C1034   1.403       .  A
C1033      C1038   1.411       .  A
C1034      C1035   1.402       .  A
C1034      H1049   1.085       .  S
C1035      C1036   1.411       .  A
C1035      C1039   1.443       .  S
C1036      C1037   1.403       .  A
C1037      C1038   1.402       .  A
C1037      H1050   1.085       .  S
C1038      C1040   1.443       .  S
C1039      N1043   1.157       .  T
C1040      N1044   1.157       .  T
C1041      N1046   1.157       .  T
C1042      N1045   1.157       .  T
C1051      C1052   1.408       .  A
C1051      C1056   1.398       .  A
C1051      C1065   1.444       .  S
C1052      C1053   1.403       .  A
C1052      C1057   1.488       .  S
C1053      C1054   1.405       .  A
C1053      H1072   1.085       .  S
C1054      C1055   1.416       .  A
C1054      C1066   1.440       .  S
C1055      C1056   1.409       .  A
C1056      H1071   1.081       .  S
C1057      C1058   1.404       .  A
C1057      C1062   1.412       .  A
C1058      C1059   1.401       .  A
C1058      H1073   1.085       .  S
C1059      C1060   1.410       .  A
C1059      C1063   1.443       .  S
C1060      C1061   1.403       .  A
C1061      C1062   1.403       .  A
C1061      H1074   1.084       .  S
C1062      C1064   1.444       .  S
C1063      N1067   1.157       .  T
C1064      N1068   1.157       .  T
C1065      N1070   1.157       .  T
C1066      N1069   1.157       .  T
C1075      C1076   1.414       .  A
C1075      C1080   1.410       .  A
C1075      C1089   1.443       .  S
C1076      C1081   1.497       .  S
C1077      C1078   1.398       .  A
C1077      H1096   1.085       .  S
C1078      C1090   1.443       .  S
C1079      C1080   1.406       .  A
C1080      H1095   1.081       .  S
C1081      C1086   1.413       .  A
C1082      C1083   1.402       .  A
C1082      H1097   1.085       .  S
C1083      C1087   1.444       .  S
C1084      C1085   1.406       .  A
C1085      C1086   1.403       .  A
C1085      H1098   1.085       .  S
C1086      C1088   1.443       .  S
C1087      N1091   1.157       .  T
C1088      N1092   1.157       .  T
C1089      N1094   1.157       .  T
C1090      N1093   1.157       .  T
C1099      C1100   1.416       .  A
C1099      C1104   1.406       .  A
C1099      C1113   1.443       .  S
C1100      C1105   1.496       .  S
C1101      C1102   1.396       .  A
C1101      H1120   1.085       .  S
C1102      C1114   1.440       .  S
C1103      C1104   1.404       .  A
C1104      H1119   1.084       .  S
C1105      C1106   1.405       .  A
C1106      C1107   1.402       .  A
C1106      H1121   1.084       .  S
C1107      C1108   1.413       .  A
C1107      C1111   1.443       .  S
C1109      C1110   1.401       .  A
C1109      H1122   1.085       .  S
C1110      C1112   1.445       .  S
C1111      N1115   1.157       .  T
C1112      N1116   1.157       .  T
C1113      N1118   1.157       .  T
C1114      N1117   1.155       .  T
C1123      C1128   1.401       .  A
C1123      C1137   1.445       .  S
C1124      C1125   1.410       .  A
C1124      C1129   1.499       .  S
C1125      C1126   1.411       .  A
C1125      H1144   1.084       .  S
C1126      C1127   1.409       .  A
C1126      C1138   1.442       .  S
C1128      H1143   1.084       .  S
C1129      C1134   1.414       .  A
C1130      C1131   1.404       .  A
C1130      H1145   1.085       .  S
C1131      C1135   1.444       .  S
C1132      C1133   1.405       .  A
C1133      C1134   1.407       .  A
C1133      H1146   1.084       .  S
C1134      C1136   1.443       .  S
C1135      N1139   1.157       .  T
C1136      N1140   1.157       .  T
C1137      N1142   1.157       .  T
C1138      N1141   1.157       .  T
C1147      C1152   1.403       .  A
C1147      C1161   1.444       .  S
C1148      C1149   1.403       .  A
C1148      C1153   1.489       .  S
C1149      C1150   1.405       .  A
C1149      H1168   1.084       .  S
C1150      C1151   1.413       .  A
C1150      C1162   1.443       .  S
C1152      H1167   1.084       .  S
C1153      C1158   1.408       .  A
C1154      H1169   1.086       .  S
C1155      C1156   1.427       .  A
C1156      C1157   1.414       .  A
C1157      C1158   1.410       .  A
C1157      H1170   1.080       .  S
C1158      C1160   1.442       .  S
C1159      N1163   1.156       .  T
C1160      N1164   1.157       .  T
C1161      N1166   1.157       .  T
C1162      N1165   1.157       .  T
N1171      C1176   1.356       .  A
N1171      H1203   1.040       .  S
N1172      C1180   1.353       .  A
N1173      C1177   1.352       .  A
N1173      H1204   1.041   1_556  S
N1174      C1182   1.352       .  A
C1175      C1183   1.387   1_655  A
C1175      C1191   1.422       .  A
C1176      C1192   1.422       .  A
C1176      C1184   1.387   1_655  A
C1177      C1185   1.386       .  A
C1177      C1194   1.416       .  A
C1178      C1193   1.417       .  A
C1178      C1186   1.387       .  A
C1179      C1191   1.412       .  A
C1179      C1187   1.386       .  A
C1180      C1194   1.415       .  A
C1180      C1188   1.386       .  A
C1181      C1189   1.386       .  A
C1181      C1192   1.415       .  A
C1182      C1190   1.386       .  A
C1182      C1193   1.414       .  A
C1183      H1195   1.082       .  S
C1184      H1196   1.082       .  S
C1185      H1197   1.082       .  S
C1186      H1198   1.082       .  S
C1187      H1199   1.082       .  S
C1188      H1200   1.082       .  S
C1189      H1201   1.082       .  S
C1190      H1202   1.082       .  S
C1192      C1522   1.502       .  S
C1193      C1474   1.498       .  S
C1205      H1206   1.111       .  S
C1205      C1211   1.530       .  S
C1205      C1210   1.548       .  S
C1207      H1208   1.108       .  S
C1207      C1212   1.565       .  S
C1207      C1214   1.544       .  S
C1209      C1212   1.384       .  D
C1209      C1397   1.494       .  S
C1210      C1213   1.381       .  D
C1210      C1421   1.497       .  S
C1211      C1493   1.493       .  S
C1212      C1445   1.502       .  S
C1213      C1373   1.495       .  S
C1214      C1469   1.506       .  S
N1215      C1220   1.355       .  A
N1215      C1219   1.355   1_545  A
N1215      H1247   1.038       .  S
N1216      C1223   1.353       .  A
N1216      C1224   1.352       .  A
N1217      C1222   1.355   1_565  A
N1217      C1221   1.355       .  A
N1217      H1248   1.039       .  S
N1218      C1225   1.353       .  A
N1218      C1226   1.352       .  A
C1219      C1227   1.386       .  A
C1219      C1235   1.418       .  A
C1220      C1236   1.420       .  A
C1220      C1228   1.388       .  A
C1221      C1229   1.388       .  A
C1221      C1238   1.421       .  A
C1222      C1237   1.417       .  A
C1222      C1230   1.387       .  A
C1223      C1235   1.415       .  A
C1223      C1231   1.386       .  A
C1224      C1238   1.416       .  A
C1224      C1232   1.387       .  A
C1225      C1233   1.387       .  A
C1225      C1236   1.416       .  A
C1226      C1234   1.386       .  A
C1226      C1237   1.415       .  A
C1227      C1228   1.375   1_565  A
C1227      H1239   1.082       .  S
C1228      H1240   1.082       .  S
C1229      C1230   1.376   1_565  A
C1229      H1241   1.082       .  S
C1230      H1242   1.082       .  S
C1231      C1232   1.373       .  A
C1231      H1243   1.082       .  S
C1232      H1244   1.082       .  S
C1233      C1234   1.373       .  A
C1233      H1245   1.082       .  S
C1234      H1246   1.082       .  S
C1235      C1349   1.493       .  S
C1236      C1426   1.492       .  S
C1237      C1450   1.491       .  S
C1238      C1325   1.497       .  S
C1249      H1250   1.098       .  S
C1249      C1255   1.537       .  S
C1249      C1254   1.561       .  S
C1251      H1252   1.111       .  S
C1251      C1256   1.542       .  S
C1251      C1258   1.546       .  S
C1253      C1256   1.376       .  D
C1253      C1306   1.493       .  S
C1254      C1257   1.396       .  D
C1254      C1330   1.535       .  S
C1255      C1546   1.518       .  S
C1256      C1354   1.505       .  S
C1257      C1277   1.491       .  S
C1258      C1517   1.493       .  S
O1259     Cu1267   1.987   1_565  S
O1261     Cu1267   1.997       .  S
O1263      C1272   1.276   1_655  A
O1264     Cu1268   2.000   1_545  S
O1264      C1271   1.276       .  A
O1265      C1270   1.280       .  A
O1266     Cu1268   2.027       .  S
O1266      C1269   1.280       .  A
C1271      C1378   1.473       .  S
C1272      C1301   1.467       .  S
C1273      C1274   1.407       .  A
C1273      C1278   1.398       .  A
C1273      C1287   1.443       .  S
C1274      C1279   1.480       .  S
C1275      C1276   1.400       .  A
C1275      H1294   1.085   1_455  S
C1276      C1288   1.441       .  S
C1277      C1278   1.408       .  A
C1278      H1293   1.083       .  S
C1279      C1280   1.398       .  A
C1280      C1281   1.395       .  A
C1280      H1295   1.085       .  S
C1281      C1282   1.417       .  A
C1281      C1285   1.445       .  S
C1283      C1284   1.405       .  A
C1283      H1296   1.084       .  S
C1284      C1286   1.444       .  S
C1285      N1289   1.157       .  T
C1286      N1290   1.157       .  T
C1287      N1292   1.157       .  T
C1288      N1291   1.156       .  T
C1297      C1302   1.399       .  A
C1297      C1311   1.444       .  S
C1298      C1299   1.407       .  A
C1298      C1303   1.492   1_455  S
C1299      C1300   1.397       .  A
C1299      H1318   1.084       .  S
C1300      C1301   1.407       .  A
C1300      C1312   1.445       .  S
C1302      H1317   1.085       .  S
C1303      C1304   1.408       .  A
C1304      C1305   1.402       .  A
C1304      H1319   1.084       .  S
C1305      C1306   1.413       .  A
C1305      C1309   1.443       .  S
C1307      C1308   1.393       .  A
C1307      H1320   1.083       .  S
C1308      C1310   1.445       .  S
C1309      N1313   1.157       .  T
C1310      N1314   1.157       .  T
C1311      N1316   1.157       .  T
C1312      N1315   1.157       .  T
C1321      C1322   1.413       .  A
C1321      C1326   1.402       .  A
C1321      C1335   1.444       .  S
C1322      C1323   1.404       .  A
C1322      C1327   1.491       .  S
C1323      C1324   1.403       .  A
C1323      H1342   1.085       .  S
C1324      C1325   1.412       .  A
C1324      C1336   1.443       .  S
C1325      C1326   1.405       .  A
C1326      H1341   1.085       .  S
C1327      C1328   1.400       .  A
C1327      C1332   1.406       .  A
C1328      C1329   1.407       .  A
C1328      H1343   1.085       .  S
C1329      C1330   1.426       .  A
C1329      C1333   1.443       .  S
C1330      C1331   1.413       .  A
C1331      C1332   1.399       .  A
C1331      H1344   1.072       .  S
C1332      C1334   1.445       .  S
C1333      N1337   1.158       .  T
C1334      N1338   1.157       .  T
C1335      N1340   1.157       .  T
C1336      N1339   1.157       .  T
C1345      C1346   1.413       .  A
C1345      C1350   1.402       .  A
C1345      C1359   1.444       .  S
C1346      C1347   1.404       .  A
C1346      C1351   1.489       .  S
C1347      C1348   1.404       .  A
C1347      H1366   1.084       .  S
C1348      C1349   1.411       .  A
C1348      C1360   1.443       .  S
C1349      C1350   1.402       .  A
C1350      H1365   1.084       .  S
C1351      C1352   1.402       .  A
C1351      C1356   1.408       .  A
C1352      C1353   1.406       .  A
C1352      H1367   1.085       .  S
C1353      C1354   1.415       .  A
C1353      C1357   1.441       .  S
C1354      C1355   1.409       .  A
C1355      C1356   1.399       .  A
C1355      H1368   1.081       .  S
C1356      C1358   1.444       .  S
C1357      N1361   1.156       .  T
C1358      N1362   1.157       .  T
C1359      N1364   1.157       .  T
C1360      N1363   1.157       .  T
C1369      C1370   1.407       .  A
C1369      C1374   1.404       .  A
C1370      C1371   1.395   1_655  A
C1370      C1375   1.478       .  S
C1371      C1372   1.389       .  A
C1371      H1390   1.086       .  S
C1372      C1373   1.418   1_455  A
C1372      C1384   1.438       .  S
C1373      C1374   1.411       .  A
C1374      H1389   1.084       .  S
C1375      C1380   1.412       .  A
C1376      C1377   1.393       .  A
C1376      H1391   1.085       .  S
C1377      C1381   1.445       .  S
C1378      C1379   1.405       .  A
C1379      C1380   1.402       .  A
C1379      H1392   1.085       .  S
C1380      C1382   1.444       .  S
C1381      N1385   1.157       .  T
C1382      N1386   1.157       .  T
C1383      N1388   1.157       .  T
C1384      N1387   1.156       .  T
C1393      C1398   1.390       .  A
C1393      C1407   1.445       .  S
C1394      C1395   1.409       .  A
C1394      C1399   1.487       .  S
C1395      C1396   1.406       .  A
C1395      H1414   1.084       .  S
C1396      C1397   1.411       .  A
C1396      C1408   1.443       .  S
C1398      H1413   1.078       .  S
C1399      C1404   1.410       .  A
C1400      C1401   1.400       .  A
C1400      H1415   1.085       .  S
C1401      C1405   1.443       .  S
C1402      C1403   1.401       .  A
C1403      C1404   1.398       .  A
C1403      H1416   1.083       .  S
C1404      C1406   1.444       .  S
C1405      N1409   1.157       .  T
C1406      N1410   1.157       .  T
C1407      N1412   1.157       .  T
C1408      N1411   1.157       .  T
C1417      C1418   1.410       .  A
C1417      C1422   1.405       .  A
C1417      C1431   1.443       .  S
C1418      C1419   1.398       .  A
C1418      C1423   1.485       .  S
C1419      C1420   1.397       .  A
C1419      H1438   1.085       .  S
C1420      C1421   1.418       .  A
C1420      C1432   1.443       .  S
C1421      C1422   1.405       .  A
C1422      H1437   1.082       .  S
C1423      C1424   1.403       .  A
C1423      C1428   1.411       .  A
C1424      C1425   1.402       .  A
C1424      H1439   1.085       .  S
C1425      C1426   1.411       .  A
C1425      C1429   1.443       .  S
C1426      C1427   1.403       .  A
C1427      C1428   1.402       .  A
C1427      H1440   1.085       .  S
C1428      C1430   1.443       .  S
C1429      N1433   1.157       .  T
C1430      N1434   1.157       .  T
C1431      N1436   1.157       .  T
C1432      N1435   1.157       .  T
C1441      C1442   1.408       .  A
C1441      C1446   1.398       .  A
C1441      C1455   1.444       .  S
C1442      C1443   1.403       .  A
C1442      C1447   1.488       .  S
C1443      C1444   1.405       .  A
C1443      H1462   1.085       .  S
C1444      C1445   1.416       .  A
C1444      C1456   1.440       .  S
C1445      C1446   1.409       .  A
C1446      H1461   1.081       .  S
C1447      C1448   1.404       .  A
C1447      C1452   1.413       .  A
C1448      C1449   1.401       .  A
C1448      H1463   1.085       .  S
C1449      C1450   1.410       .  A
C1449      C1453   1.443       .  S
C1450      C1451   1.403       .  A
C1451      C1452   1.403       .  A
C1451      H1464   1.084       .  S
C1452      C1454   1.444       .  S
C1453      N1457   1.157       .  T
C1454      N1458   1.157       .  T
C1455      N1460   1.157       .  T
C1456      N1459   1.157       .  T
C1465      C1466   1.414       .  A
C1465      C1470   1.409       .  A
C1465      C1479   1.443       .  S
C1466      C1471   1.496       .  S
C1467      C1468   1.398       .  A
C1467      H1486   1.086       .  S
C1468      C1480   1.443       .  S
C1469      C1470   1.406       .  A
C1470      H1485   1.081       .  S
C1471      C1476   1.413       .  A
C1472      C1473   1.402       .  A
C1472      H1487   1.085       .  S
C1473      C1477   1.444       .  S
C1474      C1475   1.406       .  A
C1475      C1476   1.403       .  A
C1475      H1488   1.085       .  S
C1476      C1478   1.443       .  S
C1477      N1481   1.157       .  T
C1478      N1482   1.157       .  T
C1479      N1484   1.157       .  T
C1480      N1483   1.157       .  T
C1489      C1490   1.416       .  A
C1489      C1494   1.406       .  A
C1489      C1503   1.443       .  S
C1490      C1495   1.496       .  S
C1491      C1492   1.396       .  A
C1491      H1510   1.085       .  S
C1492      C1504   1.440       .  S
C1493      C1494   1.404       .  A
C1494      H1509   1.084       .  S
C1495      C1496   1.406       .  A
C1496      C1497   1.402       .  A
C1496      H1511   1.084       .  S
C1497      C1498   1.413       .  A
C1497      C1501   1.443       .  S
C1499      C1500   1.401       .  A
C1499      H1512   1.085       .  S
C1500      C1502   1.445       .  S
C1501      N1505   1.157       .  T
C1502      N1506   1.157       .  T
C1503      N1508   1.157       .  T
C1504      N1507   1.155       .  T
C1513      C1518   1.401       .  A
C1513      C1527   1.445       .  S
C1514      C1515   1.410       .  A
C1514      C1519   1.499       .  S
C1515      C1516   1.411       .  A
C1515      H1534   1.084       .  S
C1516      C1517   1.409       .  A
C1516      C1528   1.442       .  S
C1518      H1533   1.084       .  S
C1519      C1524   1.414       .  A
C1520      C1521   1.404       .  A
C1520      H1535   1.085       .  S
C1521      C1525   1.444       .  S
C1522      C1523   1.405       .  A
C1523      C1524   1.407       .  A
C1523      H1536   1.084       .  S
C1524      C1526   1.443       .  S
C1525      N1529   1.157       .  T
C1526      N1530   1.157       .  T
C1527      N1532   1.157       .  T
C1528      N1531   1.157       .  T
C1537      C1542   1.403       .  A
C1537      C1551   1.444       .  S
C1538      C1539   1.403       .  A
C1538      C1543   1.489       .  S
C1539      C1540   1.405       .  A
C1539      H1558   1.084       .  S
C1540      C1541   1.413       .  A
C1540      C1552   1.443       .  S
C1542      H1557   1.084       .  S
C1543      C1548   1.408       .  A
C1544      H1559   1.086       .  S
C1545      C1546   1.427       .  A
C1546      C1547   1.414       .  A
C1547      C1548   1.410       .  A
C1547      H1560   1.080       .  S
C1548      C1550   1.442       .  S
C1549      N1553   1.156       .  T
C1550      N1554   1.157       .  T
C1551      N1556   1.157       .  T
C1552      N1555   1.157       .  T
