geometry optimzed in LAMMPS
_audit_creation_date              2020-12-01 
_audit_creation_method            'lammps2cif' 
_symmetry_space_group_name_H-M    'P1' 
_symmetry_Int_Tables_number       1 
_symmetry_cell_setting            triclinic 
loop_ 
_symmetry_equiv_pos_as_xyz 
  x,y,z 
_cell_length_a                    85.29791412 
_cell_length_b                    85.25270940013525 
_cell_length_c                    85.35555354121732 
_cell_angle_alpha                 89.98616552581984 
_cell_angle_beta                  90.04293866823039 
_cell_angle_gamma                 90.02290136700594 
loop_ 
_atom_site_label 
_atom_site_type_symbol 
_atom_site_fract_x 
_atom_site_fract_y 
_atom_site_fract_z 
_atom_site_charge 
N1          N  0.68504664  0.63851077  0.81762253    -0.27400
N2          N  0.69644704  0.63912452  0.82808151    -0.35300
C3          C  0.70740784  0.62847204  0.82435883     0.00900
C4          C  0.70276035  0.62075948  0.81081062     0.06900
C5          C  0.68845273  0.62745791  0.80694513    -0.06200
H6          H  0.71813993  0.62686203  0.83089976     0.07600
H7          H  0.68122951  0.62496917  0.79683632     0.08800
Cu8        Cu  0.69757913  0.65530765  0.84609265     0.44200
Cu9        Cu  0.66607571  0.65357309  0.81736930     0.42000
Cu10       Cu  0.66668471  0.68395792  0.84668169     0.43900
N11         N  0.69696980  0.67400066  0.86150895    -0.34800
N12         N  0.68557790  0.68446283  0.86168552    -0.29100
C13         C  0.68892533  0.69559512  0.87227655    -0.05200
C14         C  0.70322425  0.69205072  0.87914626     0.07100
C15         C  0.70793166  0.67819462  0.87200756     0.00900
H16         H  0.68153691  0.70564902  0.87448181     0.08500
H17         H  0.71870872  0.67179739  0.87388163     0.07600
N18         N  0.64995485  0.68244142  0.82934689    -0.36300
N19         N  0.64964480  0.67133505  0.81858642    -0.28400
C20         C  0.63784282  0.67423935  0.80856696    -0.03700
C21         C  0.63034826  0.68791500  0.81323256     0.04900
C22         C  0.63840759  0.69272626  0.82650144     0.03000
H23         H  0.63521841  0.66703634  0.79848029     0.08100
H24         H  0.63644935  0.70317782  0.83339031     0.07000
N25         N  0.68085803  0.89123702  0.64239854    -0.27400
N26         N  0.67016461  0.89105115  0.65357608    -0.35300
C27         C  0.67235763  0.90347468  0.66301496     0.00900
C28         C  0.68516187  0.91186857  0.65759415     0.06900
C29         C  0.69019266  0.90376117  0.64444007    -0.06200
H30         H  0.66562778  0.90570527  0.67351512     0.07600
H31         H  0.70019285  0.90642319  0.63712731     0.08800
Cu32       Cu  0.65427262  0.87301965  0.65648018     0.44200
Cu33       Cu  0.68336702  0.87358564  0.62593175     0.42000
Cu34       Cu  0.65789048  0.83992245  0.62996272     0.43900
N35         N  0.64048399  0.85314872  0.65766495    -0.34800
N36         N  0.64176701  0.84110668  0.64802789    -0.29100
C37         C  0.63117964  0.83015952  0.65203710    -0.05200
C38         C  0.62275776  0.83554992  0.66486546     0.07100
C39         C  0.62907031  0.85020071  0.66807783     0.00900
H40         H  0.62982078  0.81912254  0.64596043     0.08500
H41         H  0.62575352  0.85821129  0.67730837     0.07600
N42         N  0.67547034  0.84150949  0.61334077    -0.36300
N43         N  0.68482505  0.85378530  0.61196134    -0.28400
C44         C  0.69523726  0.85103487  0.60049066    -0.03700
C45         C  0.69228588  0.83631099  0.59426651     0.04900
C46         C  0.67961923  0.83064021  0.60271179     0.03000
H47         H  0.70422148  0.85924538  0.59692547     0.08100
H48         H  0.67397427  0.81934727  0.60146106     0.07000
N49         N  0.86132552  0.65053939  0.65224103    -0.27400
N50         N  0.84932805  0.65079880  0.64245765    -0.35300
C51         C  0.83930630  0.63924720  0.64623390     0.00900
C52         C  0.84521697  0.63123874  0.65909064     0.06900
C53         C  0.85925020  0.63877889  0.66253410    -0.06200
H54         H  0.82838285  0.63712023  0.64016596     0.07600
H55         H  0.86735018  0.63609691  0.67190407     0.08800
Cu56       Cu  0.84683770  0.66697495  0.62459491     0.44200
Cu57       Cu  0.87951532  0.66673797  0.65160622     0.42000
Cu58       Cu  0.87722326  0.69625009  0.62099434     0.43900
N59         N  0.84714960  0.68386482  0.60722180    -0.34800
N60         N  0.85830842  0.69450237  0.60576688    -0.29100
C61         C  0.85494572  0.70378868  0.59348119    -0.05200
C62         C  0.84093586  0.69877590  0.58683601     0.07100
C63         C  0.83639237  0.68607398  0.59593542     0.00900
H64         H  0.86216194  0.71355494  0.58984285     0.08500
H65         H  0.82590302  0.67905796  0.59472412     0.07600
N66         N  0.89421357  0.69614084  0.63843728    -0.36300
N67         N  0.89508347  0.68537459  0.64953799    -0.28400
C68         C  0.90688079  0.68905970  0.65933060    -0.03700
C69         C  0.91383731  0.70288719  0.65422242     0.04900
C70         C  0.90543136  0.70695967  0.64087845     0.03000
H71         H  0.90989796  0.68223350  0.66956858     0.08100
H72         H  0.90700981  0.71722811  0.63361868     0.07000
N73         N  0.85296455  0.89415738  0.80066669    -0.27400
N74         N  0.84257937  0.89439046  0.81213673    -0.35300
C75         C  0.83197682  0.90569230  0.80921948     0.00900
C76         C  0.83586945  0.91299311  0.79520866     0.06900
C77         C  0.84927535  0.90529359  0.79016564    -0.06200
H78         H  0.82223930  0.90838596  0.81685727     0.07600
H79         H  0.85587711  0.90744216  0.77957495     0.08800
Cu80       Cu  0.84331704  0.87939533  0.83125617     0.44200
Cu81       Cu  0.87178282  0.87885757  0.79961619     0.42000
Cu82       Cu  0.87659144  0.85309010  0.83277743     0.43900
N83         N  0.84680854  0.86308039  0.84894069    -0.34800
N84         N  0.85900671  0.85356640  0.84956676    -0.29100
C85         C  0.85745913  0.84403561  0.86202200    -0.05200
C86         C  0.84354749  0.84764831  0.86967222     0.07100
C87         C  0.83717171  0.85986268  0.86097395     0.00900
H88         H  0.86569904  0.83485361  0.86492090     0.08500
H89         H  0.82615915  0.86581223  0.86291923     0.07600
N90         N  0.89169141  0.85345325  0.81372114    -0.36300
N91         N  0.88985659  0.86275652  0.80149051    -0.28400
C92         C  0.90118729  0.85971607  0.79097048    -0.03700
C93         C  0.91069691  0.84785699  0.79682548     0.04900
C94         C  0.90423742  0.84424197  0.81132966     0.03000
H95         H  0.90219187  0.86561190  0.77980389     0.08100
H96         H  0.90812996  0.83541867  0.81954792     0.07000
O97         O  0.79569572  0.77709183  0.96340283    -0.73100
O98         O  0.77324869  0.75462529  0.99800427    -0.74100
O99         O  0.77309246  0.75273493  0.96493175    -0.62700
O100        O  0.79569815  0.77879264  0.99647074    -0.71100
O101        O  0.77669548  0.79651268  0.99544923    -0.70600
O102        O  0.75389982  0.77024341  0.96391496    -0.61900
O103        O  0.75417182  0.77225987  0.99715435    -0.74400
O104        O  0.77653317  0.79461753  0.96231697    -0.73200
Cu105      Cu  0.78507728  0.76519512  0.98070168     1.04600
Cu106      Cu  0.76464389  0.78402229  0.97964998     1.04300
C107        C  0.78974472  0.78949471  0.95744837     0.93100
C108        C  0.76028016  0.75998733  0.00322681     0.92300
C109        C  0.75991764  0.75727192  0.95944776     0.84400
C110        C  0.78974138  0.79173487  0.00105698     0.90700
O111        O  0.00455176  0.79940218  0.72739955    -0.73100
O112        O  0.03827543  0.77589996  0.70412638    -0.74100
O113        O  0.00504340  0.77566232  0.70404209    -0.62700
O114        O  0.03793875  0.79993899  0.72737108    -0.71100
O115        O  0.03841241  0.78171561  0.74587978    -0.70600
O116        O  0.00513940  0.75745294  0.72257416    -0.61900
O117        O  0.03837844  0.75773438  0.72270813    -0.74400
O118        O  0.00513075  0.78116400  0.74589977    -0.73200
Cu119      Cu  0.02147103  0.78837035  0.71509739     1.04600
Cu120      Cu  0.02179014  0.76890477  0.73491301     1.04300
C121        C  0.99946021  0.79387962  0.74037234     0.93100
C122        C  0.04349208  0.76295893  0.70965701     0.92300
C123        C  0.99984023  0.76274313  0.70957558     0.84400
C124        C  0.04339452  0.79473617  0.74031792     0.90700
O125        O  0.75582161  0.00439486  0.70534577    -0.73100
O126        O  0.78158064  0.03715067  0.72743759    -0.74100
O127        O  0.78061047  0.00403976  0.72728535    -0.62700
O128        O  0.75686040  0.03765111  0.70514705    -0.71100
O129        O  0.73929287  0.03842788  0.72425094    -0.70600
O130        O  0.76310746  0.00405587  0.74647244    -0.61900
O131        O  0.76402527  0.03732435  0.74657330    -0.74400
O132        O  0.73816983  0.00516419  0.72440055    -0.73200
Cu133      Cu  0.76929061  0.02080551  0.71562374     1.04600
Cu134      Cu  0.75053873  0.02127596  0.73610738     1.04300
C135        C  0.74299113  0.99954913  0.71140923     0.93100
C136        C  0.77685606  0.04231378  0.74067813     0.92300
C137        C  0.77570204  0.99867597  0.74035088     0.84400
C138        C  0.74437754  0.04341325  0.71105669     0.90700
N139        N  0.65282346  0.68932022  0.13831618    -0.27400
N140        N  0.65151212  0.67762706  0.14836121    -0.35300
C141        C  0.63867868  0.68000190  0.15721624     0.00900
C142        C  0.63158683  0.69392532  0.15249285     0.06900
C143        C  0.64096386  0.69940884  0.14042559    -0.06200
H144        H  0.63509317  0.67232417  0.16663576     0.07600
H145        H  0.63961328  0.71012241  0.13379531     0.08800
Cu146      Cu  0.66799732  0.65971199  0.14986486     0.44200
Cu147      Cu  0.67122309  0.69202896  0.12302798     0.42000
Cu148      Cu  0.70279097  0.66480261  0.12468035     0.43900
N149        N  0.68703555  0.64446325  0.14929575    -0.34800
N150        N  0.69945331  0.64637666  0.14022156    -0.29100
C151        C  0.70984596  0.63495382  0.14327173    -0.05200
C152        C  0.70380984  0.62531808  0.15489266     0.07100
C153        C  0.68926837  0.63174599  0.15837947     0.00900
H154        H  0.72122705  0.63416875  0.13776617     0.08500
H155        H  0.68099869  0.62774410  0.16710277     0.07600
N156        N  0.70304774  0.68443707  0.11032606    -0.36300
N157        N  0.69119453  0.69434613  0.10978833    -0.28400
C158        C  0.69434904  0.70573261  0.09943432    -0.03700
C159        C  0.70899423  0.70294946  0.09298718     0.04900
C160        C  0.71416554  0.68927570  0.10024020     0.03000
H161        H  0.68633310  0.71516463  0.09672586     0.08100
H162        H  0.72508103  0.68314594  0.09828683     0.07000
N163        N  0.68631295  0.18925654  0.60912091    -0.27400
N164        N  0.67623749  0.20095142  0.61017794    -0.35300
C165        C  0.67935849  0.21152698  0.59893635     0.00900
C166        C  0.69209800  0.20627444  0.59032252     0.06900
C167        C  0.69615533  0.19206325  0.59716791    -0.06200
H168        H  0.67295440  0.22236394  0.59743139     0.07600
H169        H  0.70555639  0.18426103  0.59381278     0.08800
Cu170      Cu  0.65921708  0.20227932  0.62727890     0.44200
Cu171      Cu  0.68640499  0.17027207  0.62427015     0.42000
Cu172      Cu  0.65810591  0.17117094  0.65612919     0.43900
N173        N  0.64410888  0.20194653  0.64614050    -0.34800
N174        N  0.64364014  0.19070341  0.65677680    -0.29100
C175        C  0.63272073  0.19433725  0.66755101    -0.05200
C176        C  0.62601759  0.20860834  0.66349580     0.07100
C177        C  0.63357220  0.21301649  0.64982145     0.00900
H178        H  0.63007095  0.18718941  0.67767672     0.08500
H179        H  0.63160389  0.22347246  0.64292787     0.07600
N180        N  0.67417189  0.15324176  0.65275000    -0.36300
N181        N  0.68443615  0.15293177  0.64117541    -0.28400
C182        C  0.69351160  0.14014724  0.64270917    -0.03700
C183        C  0.68880262  0.13193003  0.65595088     0.04900
C184        C  0.67644519  0.14065382  0.66195891     0.03000
H185        H  0.70308520  0.13737334  0.63490272     0.08100
H186        H  0.66981089  0.13837513  0.67249998     0.07000
N187        N  0.17742749  0.64760473  0.64778366    -0.27400
N188        N  0.18857560  0.64790222  0.63705903    -0.35300
C189        C  0.19914459  0.63668397  0.64024714     0.00900
C190        C  0.19451129  0.62888213  0.65371134     0.06900
C191        C  0.18062740  0.63614846  0.65812520    -0.06200
H192        H  0.20965590  0.63474599  0.63344920     0.07600
H193        H  0.17341750  0.63351392  0.66819955     0.08800
Cu194      Cu  0.18964855  0.66400248  0.61907082     0.44200
Cu195      Cu  0.15891271  0.66339354  0.64836685     0.42000
Cu196      Cu  0.15911499  0.69274736  0.61734110     0.43900
N197        N  0.18901082  0.68165242  0.60258380    -0.34800
N198        N  0.17776554  0.69224913  0.60183828    -0.29100
C199        C  0.18103931  0.70239113  0.59023226    -0.05200
C200        C  0.19508865  0.69795197  0.58331087     0.07100
C201        C  0.19974964  0.68471257  0.59151377     0.00900
H202        H  0.17376171  0.71233366  0.58725197     0.08500
H203        H  0.21034644  0.67795132  0.58991338     0.07600
N204        N  0.14277666  0.69196904  0.63525570    -0.36300
N205        N  0.14266309  0.68143950  0.64661295    -0.28400
C206        C  0.13110862  0.68498949  0.65673881    -0.03700
C207        C  0.12354998  0.69845148  0.65151773     0.04900
C208        C  0.13133957  0.70245804  0.63782236     0.03000
H209        H  0.12870512  0.67839733  0.66728707     0.08100
H210        H  0.12930911  0.71255807  0.63044315     0.07000
N211        N  0.86042716  0.64613188  0.31319538    -0.27400
N212        N  0.84858490  0.64697311  0.32310776    -0.35300
C213        C  0.83909607  0.63459289  0.32089186     0.00900
C214        C  0.84516317  0.62544150  0.30888750     0.06900
C215        C  0.85877976  0.63316837  0.30436963    -0.06200
H216        H  0.82826894  0.63282431  0.32721975     0.07600
H217        H  0.86656296  0.63009937  0.29486413     0.08800
Cu218      Cu  0.84492094  0.66568770  0.33808399     0.44200
Cu219      Cu  0.87736628  0.66350917  0.31119172     0.42000
Cu220      Cu  0.87175135  0.69817751  0.33573465     0.43900
N221        N  0.84296185  0.68574262  0.35157707    -0.34800
N222        N  0.85273988  0.69772124  0.35080223    -0.29100
C223        C  0.84838490  0.70861328  0.36134716    -0.05200
C224        C  0.83517036  0.70321558  0.36917902     0.07100
C225        C  0.83212379  0.68865273  0.36257772     0.00900
H226        H  0.85451388  0.71956134  0.36319128     0.08500
H227        H  0.82293226  0.68050061  0.36568940     0.07600
N228        N  0.88995999  0.69546622  0.31993196    -0.36300
N229        N  0.89204727  0.68295266  0.31104664    -0.28400
C230        C  0.90473529  0.68521185  0.30198411    -0.03700
C231        C  0.91100723  0.69988949  0.30529968     0.04900
C232        C  0.90124920  0.70598868  0.31678348     0.03000
H233        H  0.90887152  0.67678779  0.29347942     0.08100
H234        H  0.90203283  0.71733677  0.32236832     0.07000
O235        O  0.00050601  0.77738937  0.21254619    -0.73100
O236        O  0.03466559  0.75412926  0.23520688    -0.74100
O237        O  0.00150931  0.75365971  0.23584159    -0.62700
O238        O  0.03379095  0.77771405  0.21188344    -0.71100
O239        O  0.03410679  0.79593502  0.23040689    -0.70600
O240        O  0.00134276  0.77191592  0.25433386    -0.61900
O241        O  0.03461756  0.77239313  0.25369560    -0.74400
O242        O  0.00087651  0.79566652  0.23101424    -0.73200
Cu243      Cu  0.01758811  0.76509645  0.22322180     1.04600
Cu244      Cu  0.01771838  0.78461616  0.24300192     1.04300
C245        C  0.99533513  0.79027856  0.21819154     0.93100
C246        C  0.04009372  0.75965674  0.24803428     0.92300
C247        C  0.99633695  0.75886996  0.24887943     0.84400
C248        C  0.03922917  0.79053621  0.21740843     0.90700
N249        N  0.84754689  0.89982543  0.14145916    -0.27400
N250        N  0.85765360  0.89944800  0.15317273    -0.35300
C251        C  0.85295618  0.90956936  0.16429893     0.00900
C252        C  0.83912876  0.91660115  0.15937995     0.06900
C253        C  0.83612617  0.91012708  0.14479035    -0.06200
H254        H  0.85885315  0.91115199  0.17540685     0.07600
H255        H  0.82621097  0.91241777  0.13722938     0.08800
Cu256      Cu  0.87640512  0.88401373  0.15396999     0.44200
Cu257      Cu  0.84881733  0.88519366  0.12226534     0.42000
Cu258      Cu  0.87946334  0.85583380  0.12212407     0.43900
N259        N  0.89303619  0.86632348  0.15293731    -0.34800
N260        N  0.89416650  0.85607905  0.14138310    -0.29100
C261        C  0.90556544  0.84573339  0.14476174    -0.05200
C262        C  0.91196305  0.84962181  0.15919030     0.07100
C263        C  0.90369638  0.86278697  0.16396704     0.00900
H264        H  0.90873810  0.83599673  0.13729714     0.08500
H265        H  0.90492219  0.86911226  0.17487611     0.07600
N266        N  0.86177148  0.85694383  0.10561277    -0.36300
N267        N  0.85062941  0.86768395  0.10570725    -0.28400
C268        C  0.84036403  0.86457704  0.09420599    -0.03700
C269        C  0.84522286  0.85115984  0.08642697     0.04900
C270        C  0.85890921  0.84669128  0.09401408     0.03000
H271        H  0.82986903  0.87136603  0.09212269     0.08100
H272        H  0.86613527  0.83655985  0.09162676     0.07000
N273        N  0.67896074  0.89095671  0.32166263    -0.27400
N274        N  0.66882825  0.88997551  0.31002393    -0.35300
C275        C  0.67122179  0.90187974  0.30002076     0.00900
C276        C  0.68355370  0.91093241  0.30555031     0.06900
C277        C  0.68814331  0.90358796  0.31937517    -0.06200
H278        H  0.66468058  0.90344305  0.28928540     0.07600
H279        H  0.69764199  0.90689443  0.32708649     0.08800
Cu280      Cu  0.65289537  0.87195949  0.30773687     0.44200
Cu281      Cu  0.68007676  0.87426923  0.33936199     0.42000
Cu282      Cu  0.65355922  0.84045066  0.33615140     0.43900
N283        N  0.63831039  0.85271443  0.30675206    -0.34800
N284        N  0.63845755  0.84107967  0.31697164    -0.29100
C285        C  0.62765582  0.83039936  0.31264862    -0.05200
C286        C  0.62034270  0.83561636  0.29904781     0.07100
C287        C  0.62748050  0.84981999  0.29571878     0.00900
H288        H  0.62531144  0.81968514  0.31901233     0.08500
H289        H  0.62522558  0.85746693  0.28586592     0.07600
N290        N  0.67018896  0.84325265  0.35382250    -0.36300
N291        N  0.67961732  0.85551799  0.35491150    -0.28400
C292        C  0.68913859  0.85359651  0.36729576    -0.03700
C293        C  0.68566598  0.83939637  0.37447402     0.04900
C294        C  0.67351833  0.83319732  0.36553984     0.03000
H295        H  0.69807872  0.86195320  0.37058943     0.08100
H296        H  0.66766476  0.82206936  0.36718200     0.07000
O297        O  0.75607777  0.03438062  0.25491887    -0.73100
O298        O  0.77964644  0.00014765  0.23270110    -0.74100
O299        O  0.78105810  0.03330597  0.23286527    -0.62700
O300        O  0.75473804  0.00122644  0.25484873    -0.71100
O301        O  0.73724000  0.00199274  0.23565045    -0.70600
O302        O  0.76397000  0.03371078  0.21329059    -0.61900
O303        O  0.76206107  0.00055338  0.21355775    -0.74400
O304        O  0.73902465  0.03511527  0.23532260    -0.73200
Cu305      Cu  0.76847173  0.01723509  0.24451788     1.04600
Cu306      Cu  0.74997641  0.01788253  0.22378498     1.04300
C307        C  0.74375219  0.04013322  0.24861441     0.93100
C308        C  0.77459690  0.99497942  0.21956867     0.92300
C309        C  0.77679181  0.03845125  0.21946590     0.84400
C310        C  0.74179855  0.99660159  0.24886588     0.90700
N311        N  0.35609843  0.88724723  0.64380352    -0.27400
N312        N  0.36655085  0.88691747  0.65524245    -0.35300
C313        C  0.36406215  0.89917596  0.66481796     0.00900
C314        C  0.35137976  0.90772147  0.65923666     0.06900
C315        C  0.34667150  0.89973976  0.64584358    -0.06200
H316        H  0.37081401  0.90137863  0.67531119     0.07600
H317        H  0.33702398  0.90264292  0.63815257     0.08800
Cu318      Cu  0.38318830  0.86937419  0.65823559     0.44200
Cu319      Cu  0.35455604  0.87033671  0.62628423     0.42000
Cu320      Cu  0.38075198  0.83757962  0.63051390     0.43900
N321        N  0.39701915  0.84936997  0.65955271    -0.34800
N322        N  0.39594698  0.83778346  0.64934479    -0.29100
C323        C  0.40587724  0.82630313  0.65345862    -0.05200
C324        C  0.41366932  0.83077643  0.66698958     0.07100
C325        C  0.40771713  0.84552938  0.67050919     0.00900
H326        H  0.40703448  0.81538037  0.64713416     0.08500
H327        H  0.41084170  0.85294435  0.68030291     0.07600
N328        N  0.36447372  0.83928773  0.61267799    -0.36300
N329        N  0.35487189  0.85131199  0.61101871    -0.28400
C330        C  0.34554834  0.84869701  0.59857763    -0.03700
C331        C  0.34943242  0.83425952  0.59204571     0.04900
C332        C  0.36154308  0.82869943  0.60138811     0.03000
H333        H  0.33646835  0.85669203  0.59480926     0.08100
H334        H  0.36770377  0.81767736  0.60030461     0.07000
O335        O  0.30306067  0.00575938  0.72289964    -0.73100
O336        O  0.27794224  0.03795003  0.74635324    -0.74100
O337        O  0.27945219  0.00468245  0.74618480    -0.62700
O338        O  0.30161355  0.03902624  0.72302114    -0.71100
O339        O  0.28333276  0.03818545  0.70455616    -0.70600
O340        O  0.26110584  0.00415841  0.72776921    -0.61900
O341        O  0.25972678  0.03731735  0.72783335    -0.74400
O342        O  0.28471656  0.00487232  0.70451367    -0.73200
Cu343      Cu  0.29116562  0.02189069  0.73525266     1.04600
Cu344      Cu  0.27160987  0.02111601  0.71551441     1.04300
C345        C  0.29777850  0.00006077  0.71008577     0.93100
C346        C  0.26484011  0.04272584  0.74083829     0.92300
C347        C  0.26674091  0.99899850  0.74064096     0.84400
C348        C  0.29592109  0.04409240  0.71012802     0.90700
N349        N  0.18343565  0.85302102  0.84863610    -0.27400
N350        N  0.19624145  0.86165916  0.84758225    -0.35300
C351        C  0.20591112  0.85806143  0.85948643     0.00900
C352        C  0.19887545  0.84654228  0.86856567     0.06900
C353        C  0.18460972  0.84366482  0.86124988    -0.06200
H354        H  0.21727780  0.86340073  0.86121994     0.07600
H355        H  0.17564447  0.83542237  0.86476274     0.08800
Cu356      Cu  0.19994028  0.87795098  0.83006653     0.44200
Cu357      Cu  0.16503796  0.85417299  0.83275210     0.42000
Cu358      Cu  0.16913863  0.88173416  0.80087977     0.43900
N359        N  0.20048916  0.89385191  0.81182664    -0.34800
N360        N  0.18930809  0.89527670  0.80121363    -0.29100
C361        C  0.19326135  0.90671052  0.79112887    -0.05200
C362        C  0.20766742  0.91284363  0.79560277     0.07100
C363        C  0.21184139  0.90433297  0.80881352     0.00900
H364        H  0.18610454  0.91016962  0.78126297     0.08500
H365        H  0.22229047  0.90561466  0.81586779     0.07600
N366        N  0.15028585  0.86655741  0.80311054    -0.36300
N367        N  0.14876810  0.85652708  0.81480504    -0.28400
C368        C  0.13588960  0.84775771  0.81240667    -0.03700
C369        C  0.12891376  0.85240877  0.79844664     0.04900
C370        C  0.13841001  0.86444379  0.79295353     0.03000
H371        H  0.13222586  0.83837890  0.82010256     0.08100
H372        H  0.13723921  0.87077947  0.78204105     0.07000
N373        N  0.35205520  0.64352963  0.81584108    -0.27400
N374        N  0.34013939  0.64542680  0.82553010    -0.35300
C375        C  0.32889536  0.63495230  0.82193352     0.00900
C376        C  0.33396574  0.62605502  0.80929381     0.06900
C377        C  0.34876544  0.63184036  0.80587088    -0.06200
H378        H  0.31766034  0.63432410  0.82775744     0.07600
H379        H  0.35655478  0.62819229  0.79658389     0.08800
Cu380      Cu  0.33920939  0.66300940  0.84224221     0.44200
Cu381      Cu  0.37171667  0.65765999  0.81510624     0.42000
Cu382      Cu  0.37048733  0.69132378  0.84042395     0.43900
N383        N  0.34060983  0.68254063  0.85658610    -0.34800
N384        N  0.35197571  0.69301578  0.85581528    -0.29100
C385        C  0.34929059  0.70438680  0.86637448    -0.05200
C386        C  0.33548516  0.70093597  0.87423826     0.07100
C387        C  0.33036418  0.68693554  0.86766158     0.00900
H388        H  0.35686099  0.71441817  0.86805344     0.08500
H389        H  0.31993602  0.68034244  0.87053889     0.07600
N390        N  0.38823514  0.68706713  0.82464450    -0.36300
N391        N  0.38891022  0.67472241  0.81534537    -0.28400
C392        C  0.40191759  0.67569954  0.80648411    -0.03700
C393        C  0.40984141  0.68933804  0.81050830     0.04900
C394        C  0.40072565  0.69621315  0.82204035     0.03000
H395        H  0.40526618  0.66711715  0.79778271     0.08100
H396        H  0.40275425  0.70721965  0.82799218     0.07000
O397        O  0.28377934  0.77163514  0.99892535    -0.73100
O398        O  0.26156291  0.79592185  0.96534919    -0.74100
O399        O  0.26033644  0.79529801  0.99838602    -0.62700
O400        O  0.28503182  0.77246695  0.96577122    -0.71100
O401        O  0.26663547  0.75410984  0.96485272    -0.70600
O402        O  0.24200172  0.77686147  0.99766444    -0.61900
O403        O  0.24315678  0.77756808  0.96458636    -0.74400
O404        O  0.26544059  0.75322396  0.99805119    -0.73200
Cu405      Cu  0.27332054  0.78445616  0.98217641     1.04600
Cu406      Cu  0.25367169  0.76479242  0.98126286     1.04300
C407        C  0.27823045  0.75855907  0.00374698     0.93100
C408        C  0.24877880  0.79056112  0.95965735     0.92300
C409        C  0.24722537  0.78981382  0.00310222     0.84400
C410        C  0.27967271  0.75971562  0.96002712     0.90700
N411        N  0.89680323  0.35939254  0.64701436    -0.27400
N412        N  0.89451130  0.34700400  0.63800714    -0.35300
C413        C  0.90495313  0.33583630  0.64193243     0.00900
C414        C  0.91426902  0.34145242  0.65406015     0.06900
C415        C  0.90870541  0.35647555  0.65687865    -0.06200
H416        H  0.90539139  0.32435264  0.63657994     0.07600
H417        H  0.91274685  0.36471055  0.66561909     0.08800
Cu418      Cu  0.87680215  0.34571634  0.62132830     0.44200
Cu419      Cu  0.88304529  0.37935304  0.64666732     0.42000
Cu420      Cu  0.84997089  0.37875831  0.62076268     0.43900
N421        N  0.85803604  0.34778799  0.60593294    -0.34800
N422        N  0.84830659  0.35983473  0.60581667    -0.29100
C423        C  0.83742443  0.35761926  0.59466202    -0.05200
C424        C  0.84037658  0.34344094  0.58729681     0.07100
C425        C  0.85358912  0.33755886  0.59480216     0.00900
H426        H  0.82809980  0.36583291  0.59216649     0.08500
H427        H  0.85949427  0.32657031  0.59256408     0.07600
N428        N  0.85386083  0.39633327  0.63688651    -0.36300
N429        N  0.86611406  0.39668829  0.64632052    -0.28400
C430        C  0.86471545  0.40896077  0.65608636    -0.03700
C431        C  0.85082263  0.41673247  0.65267158     0.04900
C432        C  0.84431259  0.40834462  0.64035530     0.03000
H433        H  0.87296130  0.41157101  0.66534795     0.08100
H434        H  0.83311181  0.41027848  0.63474839     0.07000
O435        O  0.03463938  0.24439494  0.73235720    -0.73100
O436        O  0.00207534  0.26853122  0.70821571    -0.74100
O437        O  0.03534499  0.26736493  0.70826544    -0.62700
O438        O  0.00146201  0.24555447  0.73220374    -0.71100
O439        O  0.00211379  0.26407848  0.75042005    -0.70600
O440        O  0.03583381  0.28615189  0.72621200    -0.61900
O441        O  0.00264480  0.28707204  0.72640713    -0.74400
O442        O  0.03533428  0.26321075  0.75026259    -0.73200
Cu443      Cu  0.01835742  0.25580824  0.71964003     1.04600
Cu444      Cu  0.01900030  0.27578489  0.73894426     1.04300
C445        C  0.04015407  0.24998639  0.74512636     0.93100
C446        C  0.99718677  0.28166117  0.71354697     0.92300
C447        C  0.04094920  0.28026754  0.71342435     0.84400
C448        C  0.99645080  0.25126098  0.74509781     0.90700
N449        N  0.89495435  0.17246112  0.80741669    -0.27400
N450        N  0.89611185  0.18171715  0.81975787    -0.35300
C451        C  0.90787312  0.19192356  0.81752154     0.00900
C452        C  0.91451296  0.18905939  0.80298063     0.06900
C453        C  0.90599386  0.17653581  0.79695795    -0.06200
H454        H  0.91090717  0.20106191  0.82575596     0.07600
H455        H  0.90724681  0.17107500  0.78560321     0.08800
Cu456      Cu  0.88085979  0.18130699  0.83846479     0.44200
Cu457      Cu  0.87757137  0.15568733  0.80483032     0.42000
Cu458      Cu  0.84929765  0.15390609  0.83698726     0.43900
N459        N  0.86339151  0.18044038  0.85511139    -0.34800
N460        N  0.85168207  0.17034042  0.85469282    -0.29100
C461        C  0.84182459  0.17344535  0.86658887    -0.05200
C462        C  0.84761967  0.18620467  0.87491767     0.07100
C463        C  0.86135797  0.19025509  0.86721820     0.00900
H464        H  0.83105900  0.16709119  0.86868251     0.08500
H465        H  0.86911807  0.19994498  0.86978305     0.07600
N466        N  0.84832576  0.14010802  0.81703702    -0.36300
N467        N  0.85840344  0.14076332  0.80530435    -0.28400
C468        C  0.85388061  0.13061804  0.79410345    -0.03700
C469        C  0.84025459  0.12319727  0.79900730     0.04900
C470        C  0.83716452  0.12955514  0.81364087     0.03000
H471        H  0.85999336  0.12900358  0.78313033     0.08100
H472        H  0.82749676  0.12684729  0.82135908     0.07000
N473        N  0.68981869  0.39246376  0.81082589    -0.27400
N474        N  0.70096612  0.39192940  0.82154011    -0.35300
C475        C  0.71181632  0.40285202  0.81826598     0.00900
C476        C  0.70730044  0.41073830  0.80478722     0.06900
C477        C  0.69325556  0.40377091  0.80040738    -0.06200
H478        H  0.72212548  0.40491823  0.82534555     0.07600
H479        H  0.68603749  0.40658181  0.79037640     0.08800
Cu480      Cu  0.70093730  0.37639184  0.84007733     0.44200
Cu481      Cu  0.67047334  0.37785051  0.81114517     0.42000
Cu482      Cu  0.66789273  0.35021144  0.84377629     0.43900
N483        N  0.69924171  0.35929760  0.85711545    -0.34800
N484        N  0.68722573  0.34964544  0.85859948    -0.29100
C485        C  0.69027319  0.33948267  0.87028339    -0.05200
C486        C  0.70497810  0.34289267  0.87644343     0.07100
C487        C  0.71022061  0.35559680  0.86775293     0.00900
H488        H  0.68252802  0.33002111  0.87363831     0.08500
H489        H  0.72131523  0.36163687  0.86878552     0.07600
N490        N  0.65126788  0.35213224  0.82606368    -0.36300
N491        N  0.65232337  0.36205472  0.81421378    -0.28400
C492        C  0.64027145  0.35963227  0.80436825    -0.03700
C493        C  0.63111850  0.34752836  0.81021344     0.04900
C494        C  0.63848486  0.34312431  0.82404906     0.03000
H495        H  0.63870186  0.36591292  0.79347591     0.08100
H496        H  0.63510330  0.33380942  0.83194964     0.07000
O497        O  0.77905621  0.24304901  0.96410936    -0.73100
O498        O  0.75633195  0.26837374  0.99665396    -0.74100
O499        O  0.75684979  0.26798908  0.96355417    -0.62700
O500        O  0.77848201  0.24340451  0.99724326    -0.71100
O501        O  0.79779940  0.26078971  0.99790281    -0.70600
O502        O  0.77653064  0.28498809  0.96343615    -0.61900
O503        O  0.77563903  0.28578300  0.99660680    -0.74400
O504        O  0.79867418  0.26009944  0.96476298    -0.73200
Cu505      Cu  0.76701379  0.25510442  0.98038936     1.04600
Cu506      Cu  0.78783637  0.27351990  0.98068025     1.04300
C507        C  0.79257286  0.24749874  0.95940868     0.93100
C508        C  0.76229503  0.28119609  0.00164563     0.92300
C509        C  0.76322992  0.28044375  0.95820032     0.84400
C510        C  0.79156304  0.24808648  0.00286942     0.90700
N511        N  0.65018544  0.35208522  0.13425094    -0.27400
N512        N  0.65014547  0.36304266  0.14519988    -0.35300
C513        C  0.63773714  0.36077486  0.15463591     0.00900
C514        C  0.62955862  0.34769763  0.14943498     0.06900
C515        C  0.63782634  0.34258245  0.13641676    -0.06200
H516        H  0.63531901  0.36778504  0.16490600     0.07600
H517        H  0.63539675  0.33244492  0.12921116     0.08800
Cu518      Cu  0.66757156  0.37981003  0.14778307     0.44200
Cu519      Cu  0.66753652  0.34934880  0.11752906     0.42000
Cu520      Cu  0.69918951  0.37681369  0.11983628     0.43900
N521        N  0.68715694  0.39422979  0.14810293    -0.34800
N522        N  0.69862639  0.39310801  0.13778723    -0.29100
C523        C  0.70981408  0.40360258  0.14133568    -0.05200
C524        C  0.70527611  0.41179713  0.15462614     0.07100
C525        C  0.69076301  0.40549432  0.15853882     0.00900
H526        H  0.72054184  0.40492016  0.13473747     0.08500
H527        H  0.68342333  0.40858229  0.16838316     0.07600
N528        N  0.69832471  0.35884704  0.10356665    -0.36300
N529        N  0.68672462  0.34863992  0.10271050    -0.28400
C530        C  0.68981672  0.33827638  0.09124358    -0.03700
C531        C  0.70412132  0.34215074  0.08448187     0.04900
C532        C  0.70911724  0.35529876  0.09268886     0.03000
H533        H  0.68216774  0.32864253  0.08817230     0.08100
H534        H  0.71989724  0.36177503  0.09112281     0.07000
N535        N  0.34171575  0.64137774  0.13518141    -0.27400
N536        N  0.35305652  0.64042873  0.14567558    -0.35300
C537        C  0.34921732  0.62956626  0.15642153     0.00900
C538        C  0.33468529  0.62334065  0.15254703     0.06900
C539        C  0.33035979  0.63114327  0.13894175    -0.06200
H540        H  0.35637986  0.62677212  0.16649460     0.07600
H541        H  0.31965449  0.62976166  0.13230185     0.08800
Cu542      Cu  0.37273708  0.65459827  0.14549790     0.44200
Cu543      Cu  0.34143657  0.65734610  0.11692598     0.42000
Cu544      Cu  0.37379365  0.68465344  0.11564829     0.43900
N545        N  0.39035188  0.67116884  0.14372524    -0.34800
N546        N  0.39076524  0.68215314  0.13282557    -0.29100
C547        C  0.40311923  0.69156995  0.13548682    -0.05200
C548        C  0.41089983  0.68629782  0.14877072     0.07100
C549        C  0.40241881  0.67328188  0.15361859     0.00900
H550        H  0.40579988  0.70183338  0.12854629     0.08500
H551        H  0.40455120  0.66601676  0.16377890     0.07600
N552        N  0.35453284  0.68585871  0.10091164    -0.36300
N553        N  0.34269819  0.67588530  0.10133105    -0.28400
C554        C  0.33176206  0.68042908  0.09092666    -0.03700
C555        C  0.33692397  0.69400175  0.08355346     0.04900
C556        C  0.35146952  0.69701499  0.09023832     0.03000
H557        H  0.32073862  0.67441324  0.08920490     0.08100
H558        H  0.35919794  0.70678340  0.08789993     0.07000
N559        N  0.68270994  0.14775915  0.31989597    -0.27400
N560        N  0.67211562  0.14867452  0.30864998    -0.35300
C561        C  0.67443649  0.13688967  0.29846203     0.00900
C562        C  0.68717653  0.12808083  0.30350333     0.06900
C563        C  0.69205093  0.13538360  0.31719483    -0.06200
H564        H  0.66752471  0.13519434  0.28798058     0.07600
H565        H  0.70197174  0.13235563  0.32447209     0.08800
Cu566      Cu  0.65579207  0.16656851  0.30699469     0.44200
Cu567      Cu  0.68507789  0.16410571  0.33760957     0.42000
Cu568      Cu  0.65939998  0.19772778  0.33546386     0.43900
N569        N  0.64188714  0.18646100  0.30704569    -0.34800
N570        N  0.64321719  0.19786977  0.31741860    -0.29100
C571        C  0.63304351  0.20934165  0.31379307    -0.05200
C572        C  0.62487852  0.20499278  0.30040881     0.07100
C573        C  0.63083105  0.19034681  0.29653363     0.00900
H574        H  0.63203098  0.22018717  0.32027104     0.08500
H575        H  0.62760717  0.18303835  0.28670044     0.07600
N576        N  0.67721842  0.19537224  0.35173135    -0.36300
N577        N  0.68661016  0.18309296  0.35257614    -0.28400
C578        C  0.69721136  0.18549055  0.36399007    -0.03700
C579        C  0.69434842  0.20002039  0.37070542     0.04900
C580        C  0.68154951  0.20590883  0.36258170     0.03000
H581        H  0.70634501  0.17724824  0.36705287     0.08100
H582        H  0.67593832  0.21717160  0.36411519     0.07000
N583        N  0.35409452  0.15168663  0.31892110    -0.27400
N584        N  0.36379860  0.15229771  0.30690560    -0.35300
C585        C  0.36052984  0.14041457  0.29710420     0.00900
C586        C  0.34808859  0.13187907  0.30323963     0.06900
C587        C  0.34436939  0.13944632  0.31712416    -0.06200
H588        H  0.36667797  0.13839799  0.28622400     0.07600
H589        H  0.33507760  0.13659508  0.32524205     0.08800
Cu590      Cu  0.38035156  0.16980270  0.30403782     0.44200
Cu591      Cu  0.35367480  0.16803652  0.33665907     0.42000
Cu592      Cu  0.37864388  0.20155362  0.33284463     0.43900
N593        N  0.39468175  0.18939003  0.30365561    -0.34800
N594        N  0.39395268  0.20085037  0.31404940    -0.29100
C595        C  0.40458788  0.21183698  0.31035590    -0.05200
C596        C  0.41247892  0.20713224  0.29695898     0.07100
C597        C  0.40583002  0.19279906  0.29305907     0.00900
H598        H  0.40624592  0.22252629  0.31695915     0.08500
H599        H  0.40882603  0.18530354  0.28329638     0.07600
N600        N  0.36213127  0.19929905  0.35045954    -0.36300
N601        N  0.35314134  0.18677893  0.35184259    -0.28400
C602        C  0.34318741  0.18883642  0.36380588    -0.03700
C603        C  0.34593678  0.20345269  0.37035206     0.04900
C604        C  0.35812559  0.20973655  0.36157714     0.03000
H605        H  0.33442547  0.18033106  0.36720386     0.08100
H606        H  0.36339215  0.22121082  0.36279685     0.07000
N607        N  0.19617217  0.89270319  0.14887543    -0.27400
N608        N  0.18580471  0.89296529  0.16036291    -0.35300
C609        C  0.19035558  0.90358809  0.17106940     0.00900
C610        C  0.20428972  0.91037241  0.16608166     0.06900
C611        C  0.20756475  0.90311119  0.15193748    -0.06200
H612        H  0.18395280  0.90603328  0.18171456     0.07600
H613        H  0.21742500  0.90519985  0.14427086     0.08800
Cu614      Cu  0.16600470  0.87887039  0.16115861     0.44200
Cu615      Cu  0.19483547  0.87840742  0.12943432     0.42000
Cu616      Cu  0.16119365  0.85366757  0.12743309     0.43900
N617        N  0.14788247  0.86282635  0.15880469    -0.34800
N618        N  0.14620005  0.85376119  0.14637699    -0.29100
C619        C  0.13398226  0.84411362  0.14859309    -0.05200
C620        C  0.12757927  0.84713420  0.16320312     0.07100
C621        C  0.13671051  0.85917021  0.16930952     0.00900
H622        H  0.13031510  0.83536200  0.14019508     0.08500
H623        H  0.13570603  0.86456569  0.18072625     0.07600
N624        N  0.17863738  0.85359935  0.11072317    -0.36300
N625        N  0.19111557  0.86272056  0.11142768    -0.28400
C626        C  0.20064085  0.85935506  0.09935955    -0.03700
C627        C  0.19383078  0.84743283  0.09064905     0.04900
C628        C  0.17985757  0.84412222  0.09823605     0.03000
H629        H  0.21192953  0.86481139  0.09746394     0.08100
H630        H  0.17126898  0.83532260  0.09512990     0.07000
N631        N  0.36272278  0.89418341  0.32625412    -0.27400
N632        N  0.37218671  0.89318024  0.31407751    -0.35300
C633        C  0.36893302  0.90485758  0.30403499     0.00900
C634        C  0.35670696  0.91369383  0.31011924     0.06900
C635        C  0.35314945  0.90653539  0.32430065    -0.06200
H636        H  0.37468280  0.90628871  0.29284807     0.07600
H637        H  0.34385653  0.90955550  0.33235242     0.08800
Cu638      Cu  0.38758103  0.87484041  0.31066428     0.44200
Cu639      Cu  0.36207453  0.87764009  0.34396324     0.42000
Cu640      Cu  0.38568710  0.84265720  0.33828265     0.43900
N641        N  0.39985619  0.85414395  0.30812300    -0.34800
N642        N  0.39915373  0.84234045  0.31811941    -0.29100
C643        C  0.40807042  0.83051947  0.31274287    -0.05200
C644        C  0.41469508  0.83508591  0.29861438     0.07100
C645        C  0.40919263  0.85017313  0.29611238     0.00900
H646        H  0.40937809  0.81936650  0.31863262     0.08500
H647        H  0.41174254  0.85780559  0.28632228     0.07600
N648        N  0.37038179  0.84576531  0.35682722    -0.36300
N649        N  0.36188007  0.85853826  0.35889784    -0.28400
C650        C  0.35249545  0.85648934  0.37134588    -0.03700
C651        C  0.35512047  0.84163575  0.37746257     0.04900
C652        C  0.36662704  0.83522761  0.36791844     0.03000
H653        H  0.34406424  0.86509821  0.37524974     0.08100
H654        H  0.37154298  0.82355906  0.36851555     0.07000
O655        O  0.28279831  0.00195967  0.25805839    -0.73100
O656        O  0.25771957  0.03322316  0.23362873    -0.74100
O657        O  0.25938300  0.00014725  0.23465452    -0.62700
O658        O  0.28108940  0.03504385  0.25710366    -0.71100
O659        O  0.29940000  0.03547467  0.23867932    -0.70600
O660        O  0.27771825  0.00037597  0.21624981    -0.61900
O661        O  0.27599114  0.03357732  0.21517514    -0.74400
O662        O  0.30114630  0.00223395  0.23967138    -0.73200
Cu663      Cu  0.26961955  0.01757552  0.24649502     1.04600
Cu664      Cu  0.28921938  0.01793145  0.22680523     1.04300
C665        C  0.29592085  0.99709594  0.25273174     0.93100
C666        C  0.26284748  0.03836613  0.22053185     0.92300
C667        C  0.26505008  0.99473470  0.22190926     0.84400
C668        C  0.29367273  0.04083679  0.25143263     0.90700
N669        N  0.35511237  0.15374536  0.63990524    -0.27400
N670        N  0.36483204  0.15491465  0.65190004    -0.35300
C671        C  0.36169103  0.14337509  0.66217433     0.00900
C672        C  0.34931734  0.13453366  0.65638490     0.06900
C673        C  0.34552403  0.14148431  0.64220101    -0.06200
H674        H  0.36771348  0.14187762  0.67322549     0.07600
H675        H  0.33638048  0.13805851  0.63411818     0.08800
Cu676      Cu  0.38130275  0.17263061  0.65404999     0.44200
Cu677      Cu  0.35451799  0.16920334  0.62127566     0.42000
Cu678      Cu  0.38215043  0.20101488  0.62234824     0.43900
N679        N  0.39617954  0.19182371  0.65339241    -0.34800
N680        N  0.39653796  0.20210291  0.64181923    -0.29100
C681        C  0.40727715  0.21316788  0.64507050    -0.05200
C682        C  0.41407319  0.20972433  0.65943068     0.07100
C683        C  0.40668480  0.19606786  0.66432734     0.00900
H684        H  0.40988106  0.22296016  0.63745400     0.08500
H685        H  0.40858016  0.18969874  0.67511513     0.07600
N686        N  0.36553942  0.19834119  0.60490684    -0.36300
N687        N  0.35533621  0.18670683  0.60454822    -0.28400
C688        C  0.34562858  0.18874492  0.59231669    -0.03700
C689        C  0.34990333  0.20239233  0.58453251     0.04900
C690        C  0.36263095  0.20811156  0.59290961     0.03000
H691        H  0.33602431  0.18094232  0.58956191     0.08100
H692        H  0.36904627  0.21885103  0.59084475     0.07000
N693        N  0.18061822  0.38902706  0.65353156    -0.27400
N694        N  0.19122786  0.38927582  0.64228590    -0.35300
C695        C  0.20160539  0.40074110  0.64514147     0.00900
C696        C  0.19741872  0.40823028  0.65892462     0.06900
C697        C  0.18399360  0.40041690  0.66391158    -0.06200
H698        H  0.21143093  0.40333823  0.63758958     0.07600
H699        H  0.17709371  0.40277453  0.67426157     0.08800
Cu700      Cu  0.19138258  0.37424361  0.62343352     0.44200
Cu701      Cu  0.16213439  0.37313118  0.65395814     0.42000
Cu702      Cu  0.15964217  0.34680461  0.62037106     0.43900
N703        N  0.18960679  0.35800813  0.60569268    -0.34800
N704        N  0.17787552  0.34799778  0.60445402    -0.29100
C705        C  0.18051594  0.33850822  0.59219218    -0.05200
C706        C  0.19467968  0.34271769  0.58534800     0.07100
C707        C  0.20005313  0.35519732  0.59428023     0.00900
H708        H  0.17282092  0.32899318  0.58888966     0.08500
H709        H  0.21096781  0.36151312  0.59300830     0.07600
N710        N  0.14427395  0.34632031  0.63910401    -0.36300
N711        N  0.14522644  0.35575722  0.65134677    -0.28400
C712        C  0.13408887  0.35173829  0.66173021    -0.03700
C713        C  0.12569547  0.33910142  0.65579200     0.04900
C714        C  0.13253305  0.33605415  0.64137256     0.03000
H715        H  0.13260589  0.35737484  0.67297444     0.08100
H716        H  0.12947271  0.32688553  0.63317504     0.07000
N717        N  0.17181227  0.39454258  0.31280372    -0.27400
N718        N  0.18329378  0.39457337  0.32319613    -0.35300
C719        C  0.19353934  0.40599636  0.31943639     0.00900
C720        C  0.18826952  0.41350285  0.30595749     0.06900
C721        C  0.17440661  0.40586071  0.30220107    -0.06200
H722        H  0.20425568  0.40827458  0.32581338     0.07600
H723        H  0.16679875  0.40802934  0.29230874     0.08800
Cu724      Cu  0.18489972  0.37826089  0.34125733     0.44200
Cu725      Cu  0.15361149  0.37851741  0.31234078     0.42000
Cu726      Cu  0.15484715  0.34781755  0.34085908     0.43900
N727        N  0.18406742  0.35964230  0.35699725    -0.34800
N728        N  0.17320351  0.34858836  0.35675514    -0.29100
C729        C  0.17632541  0.33803225  0.36803173    -0.05200
C730        C  0.18983965  0.34260320  0.37585290     0.07100
C731        C  0.19437914  0.35640608  0.36847786     0.00900
H732        H  0.16924334  0.32774833  0.37023349     0.08500
H733        H  0.20462316  0.36345536  0.37095275     0.07600
N734        N  0.13824330  0.34883438  0.32316873    -0.36300
N735        N  0.13775381  0.36016987  0.31265433    -0.28400
C736        C  0.12651062  0.35691885  0.30209542    -0.03700
C737        C  0.11954620  0.34274435  0.30610044     0.04900
C738        C  0.12732245  0.33804914  0.31961926     0.03000
H739        H  0.12406077  0.36413203  0.29197045     0.08100
H740        H  0.12574260  0.32726571  0.32608873     0.07000
N741        N  0.84848552  0.13467813  0.14219999    -0.27400
N742        N  0.85998495  0.13391760  0.15254273    -0.35300
C743        C  0.85708324  0.12219244  0.16264915     0.00900
C744        C  0.84297964  0.11516835  0.15858921     0.06900
C745        C  0.83792827  0.12342258  0.14547687    -0.06200
H746        H  0.86451158  0.11943688  0.17253739     0.07600
H747        H  0.82705683  0.12189188  0.13914061     0.08800
Cu748      Cu  0.87826031  0.14982608  0.15368667     0.44200
Cu749      Cu  0.84708527  0.15182759  0.12491953     0.42000
Cu750      Cu  0.87754433  0.18169056  0.12602727     0.43900
N751        N  0.89424203  0.16807718  0.15392194    -0.34800
N752        N  0.89404569  0.17975870  0.14375925    -0.29100
C753        C  0.90565613  0.18983346  0.14728763    -0.05200
C754        C  0.91352156  0.18426329  0.16038722     0.07100
C755        C  0.90590859  0.17042569  0.16424528     0.00900
H756        H  0.90790499  0.20060816  0.14098584     0.08500
H757        H  0.90857006  0.16260745  0.17386465     0.07600
N758        N  0.85959984  0.18124271  0.10964868    -0.36300
N759        N  0.84850071  0.17043836  0.10921394    -0.28400
C760        C  0.83866944  0.17370158  0.09732422    -0.03700
C761        C  0.84379590  0.18725496  0.08984571     0.04900
C762        C  0.85713928  0.19164430  0.09807202     0.03000
H763        H  0.82846243  0.16672813  0.09451832     0.08100
H764        H  0.86458106  0.20168225  0.09593997     0.07000
N765        N  0.86357728  0.38837591  0.30651291    -0.27400
N766        N  0.85257767  0.38919573  0.31736657    -0.35300
C767        C  0.84281033  0.40105263  0.31391035     0.00900
C768        C  0.84783832  0.40811213  0.30015492     0.06900
C769        C  0.86109540  0.39972060  0.29584301    -0.06200
H770        H  0.83275668  0.40417485  0.32095145     0.07600
H771        H  0.86828061  0.40146003  0.28555776     0.08800
Cu772      Cu  0.85071002  0.37380923  0.33603950     0.44200
Cu773      Cu  0.88104532  0.37146657  0.30636340     0.42000
Cu774      Cu  0.87905877  0.34242333  0.33717269     0.43900
N775        N  0.85041960  0.35607124  0.35259583    -0.34800
N776        N  0.86079525  0.34458926  0.35292686    -0.29100
C777        C  0.85717695  0.33469535  0.36461032    -0.05200
C778        C  0.84382283  0.34017383  0.37208729     0.07100
C779        C  0.83989097  0.35379726  0.36408982     0.00900
H780        H  0.86369281  0.32412871  0.36717457     0.08500
H781        H  0.83007156  0.36149455  0.36630745     0.07600
N782        N  0.89561226  0.34207664  0.31949688    -0.36300
N783        N  0.89635789  0.35267959  0.30824503    -0.28400
C784        C  0.90781431  0.34868573  0.29821787    -0.03700
C785        C  0.91464756  0.33481645  0.30334891     0.04900
C786        C  0.90656333  0.33104750  0.31694730     0.03000
H787        H  0.91054081  0.35522272  0.28771626     0.08100
H788        H  0.90819858  0.32088881  0.32434753     0.07000
O789        O  0.00319282  0.27908837  0.23313515    -0.73100
O790        O  0.03779944  0.25662464  0.21048985    -0.74100
O791        O  0.00461984  0.25456239  0.21060812    -0.62700
O792        O  0.03639475  0.28112634  0.23287382    -0.71100
O793        O  0.03743069  0.26370454  0.25212837    -0.70600
O794        O  0.00558322  0.23707325  0.22981819    -0.61900
O795        O  0.03886426  0.23921172  0.22975587    -0.74400
O796        O  0.00424043  0.26149377  0.25223907    -0.73200
Cu797      Cu  0.02044944  0.26845141  0.22110716     1.04600
Cu798      Cu  0.02157551  0.24975115  0.24164018     1.04300
C799        C  0.99825732  0.27387112  0.24628760     0.93100
C800        C  0.04388105  0.24437770  0.21662478     0.92300
C801        C  0.00001845  0.24165409  0.21667960     0.84400
C802        C  0.04195964  0.27664001  0.24603553     0.90700
N803        N  0.18020558  0.65013240  0.30623474    -0.27400
N804        N  0.19184692  0.64990685  0.31644722    -0.35300
C805        C  0.20127709  0.63771110  0.31315549     0.00900
C806        C  0.19531261  0.62985120  0.30019180     0.06900
C807        C  0.18190052  0.63813709  0.29619524    -0.06200
H808        H  0.21179338  0.63498427  0.31967918     0.07600
H809        H  0.17400840  0.63590347  0.28653928     0.08800
Cu810      Cu  0.19479122  0.66652979  0.33401086     0.44200
Cu811      Cu  0.16279327  0.66695808  0.30567646     0.42000
Cu812      Cu  0.16508714  0.69682619  0.33520030     0.43900
N813        N  0.19503290  0.68502960  0.34986871    -0.34800
N814        N  0.18408252  0.69597109  0.35029727    -0.29100
C815        C  0.18761987  0.70637300  0.36157470    -0.05200
C816        C  0.20153185  0.70184406  0.36869124     0.07100
C817        C  0.20586634  0.68820741  0.36089631     0.00900
H818        H  0.18062223  0.71662199  0.36414219     0.08500
H819        H  0.21611056  0.68105189  0.36302265     0.07600
N820        N  0.14808528  0.69644240  0.31788564    -0.36300
N821        N  0.14729336  0.68551668  0.30696548    -0.28400
C822        C  0.13552343  0.68895097  0.29707232    -0.03700
C823        C  0.12850576  0.70279253  0.30197173     0.04900
C824        C  0.13683173  0.70714049  0.31526860     0.03000
H825        H  0.13261357  0.68199786  0.28688804     0.08100
H826        H  0.13508248  0.71741508  0.32247194     0.07000
N827        N  0.15142453  0.17331225  0.15436752    -0.27400
N828        N  0.14885537  0.18207848  0.14189058    -0.35300
C829        C  0.13661917  0.19161548  0.14472484     0.00900
C830        C  0.13118661  0.18870057  0.15979325     0.06900
C831        C  0.14093913  0.17697445  0.16547958    -0.06200
H832        H  0.13221322  0.20013603  0.13644047     0.07600
H833        H  0.14070544  0.17155663  0.17692261     0.08000
Cu834      Cu  0.16291046  0.18101982  0.12218325     0.44200
Cu835      Cu  0.16923802  0.15698085  0.15592646     0.42000
Cu836      Cu  0.19592370  0.15342251  0.12349231     0.43900
N837        N  0.18035936  0.17961297  0.10542542    -0.34800
N838        N  0.19235793  0.16982243  0.10592445    -0.29100
C839        C  0.20214558  0.17313338  0.09404172    -0.05200
C840        C  0.19606863  0.18568439  0.08564819     0.07100
C841        C  0.18218808  0.18938559  0.09323896     0.00900
H842        H  0.21312137  0.16711664  0.09208033     0.08500
H843        H  0.17430071  0.19896991  0.09067787     0.07600
N844        N  0.19700730  0.13931008  0.14323052    -0.36300
N845        N  0.18721374  0.14077158  0.15510618    -0.28400
C846        C  0.19083855  0.13014554  0.16612302    -0.03700
C847        C  0.20359126  0.12145992  0.16100018     0.04900
C848        C  0.20718244  0.12767413  0.14638708     0.03000
H849        H  0.18462928  0.12901774  0.17709933     0.08100
H850        H  0.21643691  0.12404175  0.13854016     0.07000
N851        N  0.33878178  0.38989500  0.13813248    -0.27400
N852        N  0.35022017  0.39119276  0.14848522    -0.35300
C853        C  0.34686211  0.40303644  0.15832883     0.00900
C854        C  0.33257766  0.40955681  0.15396535     0.06900
C855        C  0.32785696  0.40083176  0.14108216    -0.06200
H856        H  0.35428219  0.40647053  0.16800976     0.07600
H857        H  0.31730063  0.40225736  0.13421896     0.08800
Cu858      Cu  0.36971310  0.37661248  0.14885539     0.44200
Cu859      Cu  0.33831850  0.37341985  0.12040363     0.42000
Cu860      Cu  0.37099805  0.34690411  0.11844154     0.43900
N861        N  0.38723294  0.35982171  0.14700869    -0.34800
N862        N  0.38762811  0.34905450  0.13589717    -0.29100
C863        C  0.39992642  0.33954749  0.13834212    -0.05200
C864        C  0.40774380  0.34447945  0.15172388     0.07100
C865        C  0.39931410  0.35743886  0.15685115     0.00900
H866        H  0.40267233  0.32960319  0.13099228     0.08500
H867        H  0.40145176  0.36443277  0.16719505     0.07600
N868        N  0.35241448  0.34634586  0.10294809    -0.36300
N869        N  0.34039378  0.35605198  0.10368319    -0.28400
C870        C  0.33016908  0.35247256  0.09226000    -0.03700
C871        C  0.33601817  0.33982413  0.08386712     0.04900
C872        C  0.35018721  0.33629285  0.09105227     0.03000
H873        H  0.31926236  0.35864215  0.09037818     0.08100
H874        H  0.35825205  0.32697318  0.08811781     0.07000
N875        N  0.18086572  0.14022104  0.80431321    -0.27400
N876        N  0.19114070  0.14026168  0.81591145    -0.35300
C877        C  0.20249947  0.12983076  0.81283147     0.00900
C878        C  0.19938765  0.12274290  0.79853962     0.06900
C879        C  0.18548875  0.12966540  0.79351334    -0.06200
H880        H  0.21239192  0.12781591  0.82048405     0.07600
H881        H  0.17928094  0.12746894  0.78268797     0.08800
Cu882      Cu  0.19025588  0.15477839  0.83530420     0.44200
Cu883      Cu  0.16150492  0.15517756  0.80340241     0.42000
Cu884      Cu  0.15968140  0.18292695  0.83582857     0.43900
N885        N  0.18796301  0.17123073  0.85294161    -0.34800
N886        N  0.17666990  0.18179650  0.85301035    -0.29100
C887        C  0.17869109  0.19144423  0.86528383    -0.05200
C888        C  0.19194943  0.18670897  0.87341153     0.07100
C889        C  0.19748995  0.17379777  0.86522622     0.00900
H890        H  0.17115994  0.20130372  0.86788769     0.08500
H891        H  0.20801368  0.16713312  0.86760122     0.07600
N892        N  0.14411149  0.18268935  0.81730690    -0.36300
N893        N  0.14453129  0.17269147  0.80548670    -0.28400
C894        C  0.13300049  0.17639619  0.79533863    -0.03700
C895        C  0.12498489  0.18940748  0.80104098     0.04900
C896        C  0.13242052  0.19296024  0.81503419     0.03000
H897        H  0.13096913  0.17032901  0.78440123     0.08100
H898        H  0.12975171  0.20243050  0.82301317     0.07000
N899        N  0.35369540  0.35162073  0.85883265    -0.27400
N900        N  0.34178104  0.36149355  0.85816797    -0.35300
C901        C  0.33081019  0.35701305  0.86848173     0.00900
C902        C  0.33597200  0.34359059  0.87606746     0.06900
C903        C  0.35060057  0.34056840  0.86963139    -0.06200
H904        H  0.31968678  0.36291272  0.86986648     0.07600
H905        H  0.35833246  0.33086728  0.87223097     0.08800
Cu906      Cu  0.33988321  0.37990552  0.84256251     0.44200
Cu907      Cu  0.37291840  0.35262020  0.84406992     0.42000
Cu908      Cu  0.37081597  0.38263243  0.81436828     0.43900
N909        N  0.34007500  0.39631703  0.82476916    -0.34800
N910        N  0.35153771  0.39727912  0.81444750    -0.29100
C911        C  0.34814327  0.40854532  0.80401409    -0.05200
C912        C  0.33375838  0.41507465  0.80788884     0.07100
C913        C  0.32902019  0.40696966  0.82118846     0.00900
H914        H  0.35554601  0.41140797  0.79415077     0.08500
H915        H  0.31827404  0.40846773  0.82772207     0.07600
N916        N  0.38829270  0.36588607  0.81529615    -0.36300
N917        N  0.38912923  0.35489548  0.82616439    -0.28400
C918        C  0.40124753  0.34536679  0.82291189    -0.03700
C919        C  0.40841526  0.35059419  0.80927491     0.04900
C920        C  0.39984207  0.36368209  0.80484365     0.03000
H921        H  0.40435274  0.33523223  0.82986657     0.08100
H922        H  0.40146019  0.37082102  0.79449943     0.07000
O923        O  0.26350319  0.24248551  0.99582014    -0.73100
O924        O  0.28458064  0.26592756  0.96091495    -0.74100
O925        O  0.28595034  0.26694850  0.99396353    -0.62700
O926        O  0.26213566  0.24131850  0.96274111    -0.71100
O927        O  0.24320397  0.25915125  0.96258463    -0.70600
O928        O  0.26664353  0.28434813  0.99458891    -0.61900
O929        O  0.26552799  0.28360380  0.96156983    -0.74400
O930        O  0.24419438  0.25989856  0.99564269    -0.73200
Cu931      Cu  0.27471799  0.25354893  0.97834996     1.04600
Cu932      Cu  0.25423102  0.27235367  0.97860369     1.04300
C933        C  0.25040594  0.24743551  0.00114570     0.93100
C934        C  0.27842248  0.27862283  0.95584939     0.92300
C935        C  0.28010307  0.27968612  0.99924105     0.84400
C936        C  0.24889853  0.24618398  0.95769401     0.90700
O937        O  0.25884843  0.53421538  0.24823906    -0.73100
O938        O  0.28129150  0.50093389  0.22363853    -0.74100
O939        O  0.28152159  0.53418923  0.22401859    -0.62700
O940        O  0.25856245  0.50094753  0.24814049    -0.71100
O941        O  0.23964159  0.50109892  0.23032459    -0.70600
O942        O  0.26241322  0.53456313  0.20639825    -0.61900
O943        O  0.26225967  0.50124520  0.20593798    -0.74400
O944        O  0.23979204  0.53426288  0.23056081    -0.73200
Cu945      Cu  0.27072601  0.51753114  0.23662281     1.04600
Cu946      Cu  0.25038043  0.51777715  0.21768580     1.04300
C947        C  0.24576752  0.53955490  0.24322873     0.93100
C948        C  0.27536223  0.49587921  0.21083252     0.92300
C949        C  0.27552412  0.53976669  0.21147926     0.84400
C950        C  0.24538097  0.49585776  0.24313711     0.90700
O951        O  0.50389076  0.28007152  0.20267948    -0.73100
O952        O  0.53728078  0.25805924  0.22723984    -0.74100
O953        O  0.50404229  0.25774275  0.22703323    -0.62700
O954        O  0.53709512  0.28032445  0.20278517    -0.71100
O955        O  0.53691371  0.29977595  0.22002352    -0.70600
O956        O  0.50390293  0.27694727  0.24454787    -0.61900
O957        O  0.53716818  0.27738875  0.24461090    -0.74400
O958        O  0.50357870  0.29935490  0.22009829    -0.73200
Cu959      Cu  0.52059668  0.26839897  0.21433020     1.04600
Cu960      Cu  0.52039463  0.28904753  0.23293804     1.04300
C961        C  0.49830774  0.29309422  0.20755198     0.93100
C962        C  0.54255397  0.26425231  0.23981740     0.92300
C963        C  0.49863863  0.26380722  0.23959287     0.84400
C964        C  0.54230292  0.29355022  0.20751586     0.90700
O965        O  0.25063702  0.27272562  0.49673690    -0.73100
O966        O  0.27361671  0.25082756  0.46236913    -0.74100
O967        O  0.27560944  0.25085631  0.49540150    -0.62700
O968        O  0.24857503  0.27261092  0.46374950    -0.71100
O969        O  0.26548036  0.29235336  0.46293850    -0.70600
O970        O  0.29278458  0.27035327  0.49440656    -0.61900
O971        O  0.29064328  0.27046037  0.46133122    -0.74400
O972        O  0.26771911  0.29232251  0.49600503    -0.73200
Cu973      Cu  0.26153344  0.26107790  0.47961133     1.04600
Cu974      Cu  0.27976379  0.28205871  0.47862982     1.04300
C975        C  0.25538864  0.28603441  0.50172528     0.93100
C976        C  0.28582990  0.25713785  0.45643096     0.92300
C977        C  0.28850136  0.25705849  0.49986244     0.84400
C978        C  0.25266311  0.28600466  0.45841775     0.90700
O979        O  0.27133094  0.74628839  0.49520589    -0.73100
O980        O  0.29779904  0.77005918  0.46408274    -0.74100
O981        O  0.29675756  0.76791118  0.49734450    -0.62700
O982        O  0.27265215  0.74830797  0.46190342    -0.71100
O983        O  0.25553784  0.76785424  0.46263042    -0.70600
O984        O  0.27993175  0.78770867  0.49775039    -0.61900
O985        O  0.28059040  0.78952908  0.46473285    -0.74400
O986        O  0.25469764  0.76625284  0.49569362    -0.73200
Cu987      Cu  0.28523611  0.75743112  0.47961826     1.04600
Cu988      Cu  0.26711703  0.77849312  0.48022777     1.04300
C989        C  0.25877200  0.75264014  0.50038827     0.93100
C990        C  0.29327773  0.78360800  0.45948267     0.92300
C991        C  0.29222796  0.78098907  0.50309632     0.84400
C992        C  0.26028628  0.75495025  0.45664944     0.90700
O993        O  0.76759107  0.29441503  0.49557935    -0.73100
O994        O  0.74574944  0.27007308  0.46165011    -0.74100
O995        O  0.74369846  0.27134958  0.49483203    -0.62700
O996        O  0.76955943  0.29330112  0.46235520    -0.71100
O997        O  0.78753815  0.27460339  0.46409391    -0.70600
O998        O  0.76165393  0.25261821  0.49642143    -0.61900
O999        O  0.76382528  0.25145839  0.46326144    -0.74400
O1000       O  0.78545916  0.27559192  0.49706284    -0.73200
Cu1001     Cu  0.75600120  0.28293405  0.47852700     1.04600
Cu1002     Cu  0.77522164  0.26291935  0.48026641     1.04300
C1003       C  0.78005910  0.28876729  0.50169656     0.93100
C1004       C  0.75136582  0.25695328  0.45704063     0.92300
C1005       C  0.74867199  0.25859178  0.50091227     0.84400
C1006       C  0.78266744  0.28744250  0.45809475     0.90700
O1007       O  0.28470494  0.53795223  0.73404579    -0.73100
O1008       O  0.26368998  0.50442994  0.70841071    -0.74100
O1009       O  0.26356395  0.53779623  0.70837214    -0.62700
O1010       O  0.28494249  0.50463851  0.73397300    -0.71100
O1011       O  0.26486821  0.50442691  0.75045769    -0.70600
O1012       O  0.24378525  0.53791814  0.72521736    -0.61900
O1013       O  0.24375083  0.50463324  0.72505623    -0.74400
O1014       O  0.26481874  0.53760094  0.75075376    -0.73200
Cu1015     Cu  0.27493325  0.52121904  0.72060192     1.04600
Cu1016     Cu  0.25361423  0.52114743  0.73841422     1.04300
C1017       C  0.27808863  0.54304748  0.74648954     0.93100
C1018       C  0.25039236  0.49911166  0.71284006     0.92300
C1019       C  0.25034152  0.54322273  0.71284285     0.84400
C1020       C  0.27825144  0.49921256  0.74622592     0.90700
O1021       O  0.77638179  0.50274091  0.20775062    -0.73100
O1022       O  0.79804650  0.53624811  0.23322327    -0.74100
O1023       O  0.79919603  0.50304649  0.23198019    -0.62700
O1024       O  0.77533991  0.53606834  0.20869852    -0.71100
O1025       O  0.75619639  0.53511326  0.22621452    -0.70600
O1026       O  0.78013478  0.50174987  0.24957317    -0.61900
O1027       O  0.77881138  0.53499440  0.25063218    -0.74400
O1028       O  0.75735716  0.50189729  0.22540639    -0.73200
Cu1029     Cu  0.78789895  0.51959235  0.21978518     1.04600
Cu1030     Cu  0.76748041  0.51840995  0.23856754     1.04300
C1031       C  0.76341479  0.49699004  0.21264385     0.93100
C1032       C  0.79182196  0.54082557  0.24606801     0.92300
C1033       C  0.79343005  0.49708736  0.24443436     0.84400
C1034       C  0.76202101  0.54081535  0.21363954     0.90700
O1035       O  0.53635512  0.28032351  0.71609054    -0.73100
O1036       O  0.50283685  0.30352238  0.73938313    -0.74100
O1037       O  0.53615253  0.30273397  0.74050892    -0.62700
O1038       O  0.50310579  0.28106245  0.71488692    -0.71100
O1039       O  0.50217938  0.26188972  0.73241421    -0.70600
O1040       O  0.53521855  0.28343788  0.75789567    -0.61900
O1041       O  0.50183650  0.28431584  0.75686576    -0.74400
O1042       O  0.53530053  0.26097957  0.73343196    -0.73200
Cu1043     Cu  0.51964146  0.29258721  0.72712003     1.04600
Cu1044     Cu  0.51858987  0.27201219  0.74578179     1.04300
C1045       C  0.54114428  0.26700605  0.72103340     0.93100
C1046       C  0.49691615  0.29753093  0.75176397     0.92300
C1047       C  0.54107670  0.29640306  0.75316476     0.84400
C1048       C  0.49744307  0.26799841  0.71958636     0.90700
O1049       O  0.53386995  0.76521767  0.24097508    -0.73100
O1050       O  0.50210774  0.74010692  0.21761233    -0.74100
O1051       O  0.53519353  0.74180831  0.21752864    -0.62700
O1052       O  0.50067937  0.76371458  0.24082704    -0.71100
O1053       O  0.49956257  0.78170989  0.22210568    -0.70600
O1054       O  0.53464568  0.76043506  0.19940382    -0.61900
O1055       O  0.50145739  0.75802667  0.19879398    -0.74400
O1056       O  0.53281315  0.78393189  0.22296493    -0.73200
Cu1057     Cu  0.51799119  0.75209428  0.22986678     1.04600
Cu1058     Cu  0.51708610  0.77167775  0.21016389     1.04300
C1059       C  0.53839861  0.77851467  0.23579098     0.93100
C1060       C  0.49677721  0.74496013  0.20450479     0.92300
C1061       C  0.54042366  0.74770437  0.20478652     0.84400
C1062       C  0.49458660  0.77615567  0.23508331     0.90700
O1063       O  0.76515608  0.74908651  0.46396184    -0.73100
O1064       O  0.74208486  0.77066850  0.49890986    -0.74100
O1065       O  0.74068604  0.77166546  0.46567001    -0.62700
O1066       O  0.76633789  0.74793212  0.49717676    -0.71100
O1067       O  0.78428742  0.76673876  0.49703210    -0.70600
O1068       O  0.75845917  0.79063614  0.46567210    -0.61900
O1069       O  0.76014779  0.78937757  0.49883582    -0.74400
O1070       O  0.78293563  0.76805435  0.46384761    -0.73200
Cu1071     Cu  0.75295165  0.75917051  0.48141811     1.04600
Cu1072     Cu  0.77205869  0.77936491  0.48132675     1.04300
C1073       C  0.77770851  0.75512042  0.45839268     0.93100
C1074       C  0.74761489  0.78344470  0.50448866     0.92300
C1075       C  0.74547639  0.78497159  0.46071628     0.84400
C1076       C  0.77931876  0.75354445  0.50214397     0.90700
O1077       O  0.79880247  0.50358671  0.72795822    -0.73100
O1078       O  0.77534385  0.53569029  0.75251544    -0.74100
O1079       O  0.77618087  0.50262668  0.75202352    -0.62700
O1080       O  0.79794489  0.53675785  0.72852933    -0.71100
O1081       O  0.77912545  0.53674896  0.71060096    -0.70600
O1082       O  0.75708383  0.50248948  0.73438078    -0.61900
O1083       O  0.75630865  0.53570534  0.73480614    -0.74400
O1084       O  0.77992508  0.50337684  0.71008638    -0.73200
Cu1085     Cu  0.78771382  0.51966129  0.74084325     1.04600
Cu1086     Cu  0.76744138  0.51955476  0.72181400     1.04300
C1087       C  0.79311691  0.49835664  0.71513901     0.93100
C1088       C  0.76214678  0.54080263  0.74762559     0.92300
C1089       C  0.76314164  0.49721123  0.74703564     0.84400
C1090       C  0.79199219  0.54229262  0.71595565     0.90700
O1091       O  0.50508118  0.75509020  0.76220687    -0.73100
O1092       O  0.53576139  0.78043882  0.73771862    -0.74100
O1093       O  0.50273030  0.77819522  0.73868810    -0.62700
O1094       O  0.53809027  0.75712250  0.76135612    -0.71100
O1095       O  0.53865438  0.73844566  0.74329442    -0.70600
O1096       O  0.50361787  0.75973105  0.72041871    -0.61900
O1097       O  0.53671577  0.76178612  0.71964103    -0.74400
O1098       O  0.50547066  0.73651086  0.74403396    -0.73200
Cu1099     Cu  0.52042476  0.76834255  0.75062896     1.04600
Cu1100     Cu  0.52116498  0.74846266  0.73121202     1.04300
C1101       C  0.50023766  0.74191942  0.75697385     0.93100
C1102       C  0.54103205  0.77521159  0.72473198     0.92300
C1103       C  0.49756921  0.77228004  0.72593265     0.84400
C1104       C  0.54387507  0.74437034  0.75601811     0.90700
C1105       C  0.28627558  0.28784054  0.94348940    -0.01400
C1106       C  0.27943658  0.30175877  0.93809606    -0.09400
C1107       C  0.28693744  0.31100224  0.92695501    -0.18300
C1108       C  0.30168087  0.30664080  0.92080703     0.04100
C1109       C  0.30841295  0.29229533  0.92600264     0.18300
C1110       C  0.30071679  0.28308724  0.93726823    -0.19700
C1111       C  0.32282674  0.28728269  0.91999855    -0.21000
C1112       C  0.33078048  0.29628679  0.90899218    -0.19500
C1113       C  0.32459901  0.31060792  0.90386899     0.19700
C1114       C  0.30998568  0.31601678  0.90974049     0.01800
C1115       C  0.30441822  0.33068775  0.90443352    -0.14200
C1116       C  0.31292166  0.33953199  0.89368861    -0.12000
C1117       C  0.32724379  0.33412565  0.88775270     0.01400
C1118       C  0.33300961  0.31961002  0.89295241    -0.24100
H1119       H  0.26822618  0.30565829  0.94259806     0.09400
H1120       H  0.28084307  0.32148639  0.92344456     0.12900
H1121       H  0.30606982  0.27227721  0.94129131     0.11600
H1122       H  0.32799598  0.27632832  0.92385352     0.12800
H1123       H  0.34191965  0.29208610  0.90456416     0.11900
H1124       H  0.29360094  0.33579367  0.90844481     0.09000
H1125       H  0.30815309  0.35072608  0.89013418     0.12200
H1126       H  0.34405015  0.31520497  0.88852940     0.14100
C1127       C  0.42171336  0.34331150  0.80074905    -0.01400
C1128       C  0.42932736  0.35144275  0.78867411    -0.09400
C1129       C  0.44165297  0.34458181  0.78039767    -0.18300
C1130       C  0.44683605  0.32922991  0.78393103     0.04100
C1131       C  0.43915133  0.32106258  0.79625526     0.18300
C1132       C  0.42676370  0.32810873  0.80447174    -0.19700
C1133       C  0.44384679  0.30587527  0.80032613    -0.21000
C1134       C  0.45609621  0.29860093  0.79246148    -0.19500
C1135       C  0.46390145  0.30629376  0.78026614     0.19700
C1136       C  0.45935565  0.32169095  0.77574071     0.01800
C1137       C  0.46751885  0.32880603  0.76318630    -0.14200
C1138       C  0.47967287  0.32097598  0.75552807    -0.12000
C1139       C  0.48417650  0.30585213  0.76011401     0.01400
C1140       C  0.47621797  0.29860633  0.77252618    -0.24100
H1141       H  0.42586335  0.36325365  0.78559692     0.09400
H1142       H  0.44689763  0.35164377  0.77134415     0.12900
H1143       H  0.42096799  0.32158444  0.81368304     0.11600
H1144       H  0.43803035  0.29958260  0.80970441     0.12800
H1145       H  0.45947615  0.28684818  0.79593495     0.11900
H1146       H  0.46477096  0.34037905  0.75893721     0.09000
H1147       H  0.48558282  0.32684396  0.74594802     0.12200
H1148       H  0.47951030  0.28685889  0.77611613     0.14100
C1149       C  0.32515626  0.42753282  0.79927371    -0.01400
C1150       C  0.30989162  0.43180300  0.80360590    -0.09400
C1151       C  0.30172727  0.44336008  0.79536318    -0.18300
C1152       C  0.30859524  0.45109531  0.78240797     0.04100
C1153       C  0.32407876  0.44675283  0.77808849     0.18300
C1154       C  0.33214288  0.43515756  0.78649527    -0.19700
C1155       C  0.33148287  0.45399334  0.76537615    -0.21000
C1156       C  0.32383548  0.46552391  0.75680753    -0.19500
C1157       C  0.30860023  0.47010828  0.76074949     0.19700
C1158       C  0.30072386  0.46297411  0.77359606     0.01800
C1159       C  0.28534032  0.46808292  0.77704568    -0.14200
C1160       C  0.27816068  0.47980355  0.76817417    -0.12000
C1161       C  0.28598692  0.48680398  0.75555412     0.01400
C1162       C  0.30120942  0.48184473  0.75189595    -0.24100
H1163       H  0.30409034  0.42616979  0.81336200     0.09400
H1164       H  0.29005512  0.44592771  0.79942667     0.12900
H1165       H  0.34395114  0.43216028  0.78298266     0.11600
H1166       H  0.34329188  0.45071487  0.76202852     0.12800
H1167       H  0.32989681  0.47091212  0.74703107     0.11900
H1168       H  0.27852921  0.46329668  0.78653205     0.09000
H1169       H  0.26636561  0.48336832  0.77122827     0.12200
H1170       H  0.30739065  0.48717545  0.74215642     0.14100
C1171       C  0.24012812  0.23676106  0.94612138    -0.01400
C1172       C  0.24375128  0.22091039  0.94382889    -0.09400
C1173       C  0.23560356  0.21197042  0.93280957    -0.18300
C1174       C  0.22362411  0.21871399  0.92352561     0.04100
C1175       C  0.22001236  0.23482323  0.92593598     0.18300
C1176       C  0.22813789  0.24359384  0.93722890    -0.19700
C1177       C  0.20845492  0.24217409  0.91691790    -0.21000
C1178       C  0.20052622  0.23393772  0.90533393    -0.19500
C1179       C  0.20388795  0.21812074  0.90255520     0.19700
C1180       C  0.21533065  0.21019139  0.91172886     0.01800
C1181       C  0.21811128  0.19415825  0.90849902    -0.14200
C1182       C  0.21031540  0.18654634  0.89628832    -0.12000
C1183       C  0.19940024  0.19455259  0.88699331     0.01400
C1184       C  0.19604658  0.21027473  0.89041326    -0.24100
H1185       H  0.25291411  0.21534502  0.95063997     0.09400
H1186       H  0.23911089  0.19988271  0.93171999     0.12900
H1187       H  0.22530516  0.25588406  0.93888070     0.11600
H1188       H  0.20564913  0.25444244  0.91871370     0.12800
H1189       H  0.19177715  0.24002534  0.89840981     0.11900
H1190       H  0.22633884  0.18719024  0.91507997     0.09000
H1191       H  0.21292048  0.17431596  0.89410617     0.12200
H1192       H  0.18766184  0.21664443  0.88331109     0.14100
C1193       C  0.28899412  0.28900256  0.01082675    -0.01400
C1194       C  0.30444547  0.28492175  0.01457591    -0.09400
C1195       C  0.31284289  0.29332307  0.02578932    -0.18300
C1196       C  0.30597393  0.30611532  0.03377687     0.04100
C1197       C  0.29034865  0.31034609  0.02978067     0.18300
C1198       C  0.28208521  0.30187123  0.01834662    -0.19700
C1199       C  0.28296419  0.32285721  0.03738692    -0.21000
C1200       C  0.29066338  0.33109987  0.04913471    -0.19500
C1201       C  0.30596395  0.32708520  0.05349752     0.19700
C1202       C  0.31392574  0.31467158  0.04576019     0.01800
C1203       C  0.32942953  0.31125204  0.05050460    -0.14200
C1204       C  0.33654464  0.31952620  0.06266282    -0.12000
C1205       C  0.32854082  0.33151381  0.07053529     0.01400
C1206       C  0.31327856  0.33532684  0.06571400    -0.24100
H1207       H  0.31011347  0.27510356  0.00885700     0.09400
H1208       H  0.32461069  0.28935571  0.02804030     0.12900
H1209       H  0.27013301  0.30514853  0.01551573     0.11600
H1210       H  0.27107336  0.32616967  0.03436512     0.12800
H1211       H  0.28455429  0.34060797  0.05493728     0.11900
H1212       H  0.33639535  0.30220750  0.04513086     0.09000
H1213       H  0.34840007  0.31638600  0.06586580     0.12200
H1214       H  0.30688456  0.34457819  0.07157541     0.14100
C1215       C  0.32408172  0.42279274  0.16148069    -0.01400
C1216       C  0.30888659  0.42681755  0.15664176    -0.09400
C1217       C  0.30069120  0.43900520  0.16384736    -0.18300
C1218       C  0.30741708  0.44765046  0.17628151     0.04100
C1219       C  0.32291919  0.44372928  0.18098408     0.18300
C1220       C  0.33104044  0.43145743  0.17360541    -0.19700
C1221       C  0.33021699  0.45198633  0.19313510    -0.21000
C1222       C  0.32233893  0.46389040  0.20096042    -0.19500
C1223       C  0.30695628  0.46782769  0.19684721     0.19700
C1224       C  0.29929407  0.45989199  0.18434601     0.01800
C1225       C  0.28378128  0.46444540  0.18062896    -0.14200
C1226       C  0.27616409  0.47616948  0.18913291    -0.12000
C1227       C  0.28367140  0.48373511  0.20163019     0.01400
C1228       C  0.29913355  0.47956986  0.20532002    -0.24100
H1229       H  0.30310276  0.42045674  0.14732932     0.09400
H1230       H  0.28906288  0.44126225  0.15947704     0.12900
H1231       H  0.34282153  0.42868998  0.17742201     0.11600
H1232       H  0.34206633  0.44911647  0.19672214     0.12800
H1233       H  0.32827214  0.46995219  0.21042237     0.11900
H1234       H  0.27715374  0.45912181  0.17129615     0.09000
H1235       H  0.26423339  0.47918609  0.18599155     0.12200
H1236       H  0.30511590  0.48543976  0.21487740     0.14100
C1237       C  0.42149729  0.33694697  0.15933193    -0.01400
C1238       C  0.42757016  0.32283593  0.15348048    -0.09400
C1239       C  0.44022385  0.31545504  0.16072914    -0.18300
C1240       C  0.44732827  0.32194215  0.17421423     0.04100
C1241       C  0.44119297  0.33626214  0.18012199     0.18300
C1242       C  0.42848699  0.34361252  0.17265173    -0.19700
C1243       C  0.44769542  0.34312630  0.19353140    -0.21000
C1244       C  0.46012864  0.33600791  0.20129618    -0.19500
C1245       C  0.46643779  0.32190150  0.19578436     0.19700
C1246       C  0.46020343  0.31469997  0.18210328     0.01800
C1247       C  0.46711762  0.30054384  0.17694973    -0.14200
C1248       C  0.47952089  0.29375153  0.18513574    -0.12000
C1249       C  0.48550529  0.30077064  0.19871349     0.01400
C1250       C  0.47893422  0.31491263  0.20392855    -0.24100
H1251       H  0.42251109  0.31727067  0.14328510     0.09400
H1252       H  0.44406501  0.30462057  0.15551220     0.12900
H1253       H  0.42404502  0.35452814  0.17735299     0.11600
H1254       H  0.44307094  0.35404201  0.19810729     0.12800
H1255       H  0.46483928  0.34157776  0.21169874     0.11900
H1256       H  0.46323125  0.29437676  0.16664667     0.09000
H1257       H  0.48437780  0.28284329  0.18081348     0.12200
H1258       H  0.48347799  0.32047610  0.21441377     0.14100
C1259       C  0.20348807  0.19438323  0.07254047    -0.01400
C1260       C  0.19526508  0.20632125  0.06480004    -0.09400
C1261       C  0.20237477  0.21519535  0.05308300    -0.18300
C1262       C  0.21808086  0.21242117  0.04862770     0.04100
C1263       C  0.22626875  0.20002591  0.05617693     0.18300
C1264       C  0.21896500  0.19119365  0.06798239    -0.19700
C1265       C  0.24174725  0.19657261  0.05198542    -0.21000
C1266       C  0.24930356  0.20518584  0.04041529    -0.19500
C1267       C  0.24161650  0.21756022  0.03286956     0.19700
C1268       C  0.22593043  0.22145120  0.03694239     0.01800
C1269       C  0.21883314  0.23428319  0.02921028    -0.14200
C1270       C  0.22688285  0.24270552  0.01777887    -0.12000
C1271       C  0.24222497  0.23865003  0.01360380     0.01400
C1272       C  0.24954761  0.22608442  0.02124938    -0.24100
H1273       H  0.18323003  0.20895268  0.06777042     0.09400
H1274       H  0.19520688  0.22411022  0.04774241     0.12900
H1275       H  0.22552482  0.18198967  0.07375310     0.11600
H1276       H  0.24805214  0.18711833  0.05767876     0.12800
H1277       H  0.26127132  0.20218396  0.03739222     0.11900
H1278       H  0.20710310  0.23818479  0.03173871     0.09000
H1279       H  0.22095482  0.25238944  0.01208128     0.12200
H1280       H  0.26146851  0.22292464  0.01818204     0.14100
C1281       C  0.23756192  0.55207968  0.25196828    -0.01400
C1282       C  0.22276216  0.55725849  0.24707708    -0.09400
C1283       C  0.21518416  0.56950137  0.25481393    -0.18300
C1284       C  0.22224207  0.57708786  0.26775529     0.04100
C1285       C  0.23712521  0.57157429  0.27286975     0.18300
C1286       C  0.24458937  0.55919706  0.26500301    -0.19700
C1287       C  0.24456045  0.57853777  0.28572246    -0.21000
C1288       C  0.23759862  0.59099353  0.29356219    -0.19500
C1289       C  0.22306678  0.59685291  0.28869254     0.19700
C1290       C  0.21515381  0.58999323  0.27573251     0.01800
C1291       C  0.20058276  0.59647999  0.27124043    -0.14200
C1292       C  0.19420871  0.60924062  0.27922930    -0.12000
C1293       C  0.20205634  0.61603467  0.29198219     0.01400
C1294       C  0.21648224  0.60965968  0.29666337    -0.24100
H1295       H  0.21700027  0.55189543  0.23711329     0.09400
H1296       H  0.20385698  0.57278014  0.25029986     0.12900
H1297       H  0.25602017  0.55525675  0.26893367     0.11600
H1298       H  0.25588305  0.57436213  0.28970695     0.12800
H1299       H  0.24369165  0.59616285  0.30344264     0.11900
H1300       H  0.19382448  0.59204652  0.26154112     0.09000
H1301       H  0.18304076  0.61374163  0.27527704     0.12200
H1302       H  0.22278446  0.61471718  0.30644316     0.14100
C1303       C  0.20991882  0.70997856  0.38165023    -0.01400
C1304       C  0.20263700  0.72218798  0.38990359    -0.09400
C1305       C  0.21037395  0.72996922  0.40204426    -0.18300
C1306       C  0.22579497  0.72579139  0.40644371     0.04100
C1307       C  0.23312493  0.71333061  0.39814984     0.18300
C1308       C  0.22521569  0.70563959  0.38589481    -0.19700
C1309       C  0.24830032  0.70855363  0.40217253    -0.21000
C1310       C  0.25632676  0.71578184  0.41437642    -0.19500
C1311       C  0.24945764  0.72809377  0.42276372     0.19700
C1312       C  0.23415744  0.73341646  0.41882662     0.01800
C1313       C  0.22794624  0.74615512  0.42744764    -0.14200
C1314       C  0.23647838  0.75312990  0.43956309    -0.12000
C1315       C  0.25142273  0.74764218  0.44359998     0.01400
C1316       C  0.25784127  0.73512256  0.43508757    -0.24100
H1317       H  0.19079421  0.72575905  0.38712360     0.09400
H1318       H  0.20388608  0.73912243  0.40782833     0.12900
H1319       H  0.23108610  0.69628221  0.37965027     0.11600
H1320       H  0.25396945  0.69906704  0.39590738     0.12800
H1321       H  0.26801383  0.71171386  0.41726728     0.11900
H1322       H  0.21655222  0.75106291  0.42509794     0.09000
H1323       H  0.23124989  0.76281092  0.44589764     0.12200
H1324       H  0.26946274  0.73086377  0.43798961     0.14100
C1325       C  0.05682962  0.23612231  0.20856968    -0.01400
C1326       C  0.06456334  0.22369496  0.21600697    -0.09400
C1327       C  0.07671737  0.21572216  0.20856596    -0.18300
C1328       C  0.08155228  0.21988138  0.19327349     0.04100
C1329       C  0.07380807  0.23262952  0.18582612     0.18300
C1330       C  0.06159509  0.24058949  0.19348701    -0.19700
C1331       C  0.07827966  0.23734295  0.17076704    -0.21000
C1332       C  0.09030411  0.22964909  0.16290782    -0.19500
C1333       C  0.09809097  0.21698299  0.16987056     0.19700
C1334       C  0.09378073  0.21187192  0.18512456     0.01800
C1335       C  0.10184362  0.19889538  0.19151961    -0.14200
C1336       C  0.11376838  0.19145246  0.18323142    -0.12000
C1337       C  0.11818723  0.19660944  0.16827677     0.01400
C1338       C  0.11018613  0.20938797  0.16164930    -0.24100
H1339       H  0.06123196  0.22007603  0.22770680     0.09400
H1340       H  0.08206639  0.20637271  0.21514753     0.12900
H1341       H  0.05574083  0.25023829  0.18763214     0.11600
H1342       H  0.07244620  0.24706740  0.16502664     0.12800
H1343       H  0.09350503  0.23361038  0.15127496     0.11900
H1344       H  0.09920721  0.19411682  0.20289159     0.09000
H1345       H  0.11948424  0.18155562  0.18870844     0.12200
H1346       H  0.11336594  0.21355928  0.15010299     0.14100
C1347       C  0.92711704  0.32554353  0.29546691    -0.01400
C1348       C  0.93123288  0.31059192  0.30095496    -0.09400
C1349       C  0.94262484  0.30165331  0.29333695    -0.18300
C1350       C  0.95036366  0.30738222  0.27985448     0.04100
C1351       C  0.94623903  0.32257969  0.27438510     0.18300
C1352       C  0.93480035  0.33145288  0.28219086    -0.19700
C1353       C  0.95351579  0.32886394  0.26110502    -0.21000
C1354       C  0.96484153  0.32037169  0.25308515    -0.19500
C1355       C  0.96920290  0.30539403  0.25816132     0.19700
C1356       C  0.96204432  0.29864394  0.27161581     0.01800
C1357       C  0.96695738  0.28348394  0.27623221    -0.14200
C1358       C  0.97859497  0.27550440  0.26795584    -0.12000
C1359       C  0.98565840  0.28225563  0.25476013     0.01400
C1360       C  0.98079689  0.29717485  0.24987874    -0.24100
H1361       H  0.92556513  0.30559372  0.31112283     0.09400
H1362       H  0.94504511  0.29028353  0.29827988     0.12900
H1363       H  0.93192318  0.34301067  0.27780533     0.11600
H1364       H  0.95041573  0.34044380  0.25687234     0.12800
H1365       H  0.97026068  0.32558228  0.24284695     0.11900
H1366       H  0.96212203  0.27748742  0.28623052     0.09000
H1367       H  0.98207820  0.26395803  0.27194807     0.12200
H1368       H  0.98620263  0.30253705  0.23970534     0.14100
C1369       C  0.84040826  0.42144788  0.29175914    -0.01400
C1370       C  0.84830168  0.42921079  0.27961974    -0.09400
C1371       C  0.84134612  0.44178000  0.27173328    -0.18300
C1372       C  0.82613585  0.44703778  0.27573292     0.04100
C1373       C  0.81817136  0.43909543  0.28802008     0.18300
C1374       C  0.82530916  0.42650211  0.29584054    -0.19700
C1375       C  0.80307440  0.44371597  0.29244682    -0.21000
C1376       C  0.79563520  0.45607139  0.28489867    -0.19500
C1377       C  0.80310077  0.46412169  0.27272974     0.19700
C1378       C  0.81848370  0.45978805  0.26797343     0.01800
C1379       C  0.82544643  0.46836350  0.25561223    -0.14200
C1380       C  0.81736070  0.48049973  0.24815767    -0.12000
C1381       C  0.80213526  0.48459109  0.25278621     0.01400
C1382       C  0.79515815  0.47641822  0.26519755    -0.24100
H1383       H  0.85999894  0.42569405  0.27622216     0.09400
H1384       H  0.84819392  0.44711973  0.26257103     0.12900
H1385       H  0.81892509  0.42056589  0.30505707     0.11600
H1386       H  0.79694699  0.43770200  0.30180998     0.12800
H1387       H  0.78391863  0.45932042  0.28857874     0.11900
H1388       H  0.83707739  0.46593292  0.25135032     0.09000
H1389       H  0.82307785  0.48666862  0.23864967     0.12200
H1390       H  0.78338485  0.47946510  0.26888712     0.14100
C1391       C  0.83541088  0.33273824  0.38537436    -0.01400
C1392       C  0.84227551  0.32026538  0.39357796    -0.09400
C1393       C  0.83436828  0.31286495  0.40579652    -0.18300
C1394       C  0.81918083  0.31769398  0.41029575     0.04100
C1395       C  0.81236086  0.33056899  0.40219604     0.18300
C1396       C  0.82045768  0.33790206  0.38987730    -0.19700
C1397       C  0.79745444  0.33600013  0.40637110    -0.21000
C1398       C  0.78908899  0.32882437  0.41836383    -0.19500
C1399       C  0.79535920  0.31594392  0.42637099     0.19700
C1400       C  0.81049860  0.31017535  0.42246331     0.01800
C1401       C  0.81618174  0.29699064  0.43076215    -0.14200
C1402       C  0.80716694  0.28978665  0.44231654    -0.12000
C1403       C  0.79224203  0.29546724  0.44609000     0.01400
C1404       C  0.78646817  0.30865659  0.43814665    -0.24100
H1405       H  0.85388957  0.31613041  0.39064105     0.09400
H1406       H  0.84052005  0.30341161  0.41147389     0.12900
H1407       H  0.81494449  0.34752698  0.38370160     0.11600
H1408       H  0.79220619  0.34585099  0.40029058     0.12800
H1409       H  0.77755768  0.33328263  0.42128602     0.11900
H1410       H  0.82746899  0.29181141  0.42851415     0.09000
H1411       H  0.81193634  0.27964065  0.44828910     0.12200
H1412       H  0.77490978  0.31313903  0.44094384     0.14100
C1413       C  0.92676536  0.19176138  0.16879450    -0.01400
C1414       C  0.93000293  0.18784862  0.18440799    -0.09400
C1415       C  0.94218426  0.19515181  0.19255168    -0.18300
C1416       C  0.95163995  0.20667696  0.18528757     0.04100
C1417       C  0.94844630  0.21044026  0.16936654     0.18300
C1418       C  0.93613180  0.20301592  0.16133397    -0.19700
C1419       C  0.95746323  0.22170899  0.16156786    -0.21000
C1420       C  0.96940275  0.22961221  0.16933502    -0.19500
C1421       C  0.97266460  0.22640551  0.18508030     0.19700
C1422       C  0.96399323  0.21474568  0.19325979     0.01800
C1423       C  0.96799309  0.21181658  0.20908832    -0.14200
C1424       C  0.97984077  0.22034408  0.21652383    -0.12000
C1425       C  0.98803939  0.23210553  0.20851787     0.01400
C1426       C  0.98446867  0.23495440  0.19274060    -0.24100
H1427       H  0.92291678  0.17928581  0.19052846     0.09400
H1428       H  0.94378708  0.19160255  0.20455725     0.12900
H1429       H  0.93389070  0.20601611  0.14920121     0.11600
H1430       H  0.95514377  0.22457087  0.14941169     0.12800
H1431       H  0.97604236  0.23841315  0.16301201     0.11900
H1432       H  0.96214499  0.20308535  0.21609028     0.09000
H1433       H  0.98239324  0.21789017  0.22871385     0.12200
H1434       H  0.99085662  0.24392525  0.18638429     0.14100
C1435       C  0.10761441  0.33375372  0.29708439    -0.01400
C1436       C  0.10268430  0.33880775  0.28223444    -0.09400
C1437       C  0.09209276  0.32995442  0.27340414    -0.18300
C1438       C  0.08602205  0.31562348  0.27914481     0.04100
C1439       C  0.09084708  0.31067779  0.29430152     0.18300
C1440       C  0.10143434  0.31972790  0.30306706    -0.19700
C1441       C  0.08516451  0.29664994  0.30063994    -0.21000
C1442       C  0.07473921  0.28737522  0.29225331    -0.19500
C1443       C  0.06973189  0.29188778  0.27731098     0.19700
C1444       C  0.07532838  0.30603908  0.27047422     0.01800
C1445       C  0.06993778  0.30994246  0.25528884    -0.14200
C1446       C  0.05925276  0.30035107  0.24740292    -0.12000
C1447       C  0.05361590  0.28653300  0.25429584     0.01400
C1448       C  0.05904334  0.28233085  0.26921858    -0.24100
H1449       H  0.10714223  0.34956385  0.27721299     0.09400
H1450       H  0.08895817  0.33462768  0.26210230     0.12900
H1451       H  0.10489993  0.31567235  0.31457333     0.11600
H1452       H  0.08881265  0.29281132  0.31218804     0.12800
H1453       H  0.07053163  0.27659683  0.29751870     0.11900
H1454       H  0.07369030  0.32035233  0.24919684     0.09000
H1455       H  0.05534073  0.30384555  0.23584295     0.12200
H1456       H  0.05481850  0.27164597  0.27466861     0.14100
C1457       C  0.19800612  0.33422878  0.38879007    -0.01400
C1458       C  0.19374224  0.31887319  0.39288818    -0.09400
C1459       C  0.20175461  0.31074154  0.40463535    -0.18300
C1460       C  0.21444089  0.31770889  0.41273101     0.04100
C1461       C  0.21852771  0.33338131  0.40875618     0.18300
C1462       C  0.21032110  0.34143621  0.39697182    -0.19700
C1463       C  0.23093825  0.34090134  0.41641447    -0.21000
C1464       C  0.23966097  0.33307430  0.42771489    -0.19500
C1465       C  0.23616931  0.31754100  0.43167962     0.19700
C1466       C  0.22338094  0.30966375  0.42442262     0.01800
C1467       C  0.22027363  0.29403404  0.42906274    -0.14200
C1468       C  0.22967994  0.28649066  0.44014928    -0.12000
C1469       C  0.24249629  0.29419837  0.44696779     0.01400
C1470       C  0.24554954  0.30979335  0.44276730    -0.24100
H1471       H  0.18431924  0.31290977  0.38684886     0.09400
H1472       H  0.19784267  0.29895234  0.40695267     0.12900
H1473       H  0.21366515  0.35336035  0.39415977     0.11600
H1474       H  0.23406032  0.35287616  0.41349746     0.12800
H1475       H  0.24932629  0.33917365  0.43328017     0.11900
H1476       H  0.21073189  0.28727067  0.42428657     0.09000
H1477       H  0.22698534  0.27446812  0.44325083     0.12200
H1478       H  0.25532270  0.31594595  0.44809338     0.14100
C1479       C  0.23661390  0.48395363  0.25226068    -0.01400
C1480       C  0.22276335  0.47749110  0.24625266    -0.09400
C1481       C  0.21432642  0.46633845  0.25472395    -0.18300
C1482       C  0.21947006  0.46122613  0.26963496     0.04100
C1483       C  0.23344410  0.46793044  0.27578050     0.18300
C1484       C  0.24185303  0.47913536  0.26709016    -0.19700
C1485       C  0.23897577  0.46337312  0.29054230    -0.21000
C1486       C  0.23102589  0.45213096  0.29928428    -0.19500
C1487       C  0.21735161  0.44513763  0.29347938     0.19700
C1488       C  0.21132647  0.44965066  0.27860958     0.01800
C1489       C  0.19747868  0.44226902  0.27331468    -0.14200
C1490       C  0.19007767  0.43077913  0.28226170    -0.12000
C1491       C  0.19610246  0.42616393  0.29684515     0.01400
C1492       C  0.20973327  0.43354202  0.30241636    -0.24100
H1493       H  0.21839417  0.48102765  0.23486942     0.09400
H1494       H  0.20384028  0.46195623  0.24922089     0.12900
H1495       H  0.25249748  0.48413199  0.27192890     0.11600
H1496       H  0.24958493  0.46847958  0.29533189     0.12800
H1497       H  0.23567747  0.44879832  0.31062610     0.11900
H1498       H  0.19207941  0.44499063  0.26223577     0.09000
H1499       H  0.17963366  0.42541563  0.27749431     0.12200
H1500       H  0.21453440  0.43025627  0.31369401     0.14100
C1501       C  0.20288747  0.33476158  0.57224962    -0.01400
C1502       C  0.19673137  0.32096697  0.56579766    -0.09400
C1503       C  0.20470726  0.31289355  0.55409012    -0.18300
C1504       C  0.21927649  0.31832074  0.54838496     0.04100
C1505       C  0.22528892  0.33257847  0.55456525     0.18300
C1506       C  0.21710340  0.34062031  0.56635838    -0.19700
C1507       C  0.23950717  0.33864776  0.54904571    -0.21000
C1508       C  0.24798832  0.33074582  0.53759823    -0.19500
C1509       C  0.24252546  0.31651351  0.53150353     0.19700
C1510       C  0.22810073  0.31007743  0.53683522     0.01800
C1511       C  0.22322545  0.29555251  0.53051571    -0.14200
C1512       C  0.23220661  0.28782422  0.51932426    -0.12000
C1513       C  0.24632502  0.29424599  0.51397340     0.01400
C1514       C  0.25143504  0.30862091  0.52013243    -0.24100
H1515       H  0.18575624  0.31613546  0.56988818     0.09400
H1516       H  0.19912529  0.30239951  0.54982883     0.12900
H1517       H  0.22196361  0.35139401  0.57098726     0.11600
H1518       H  0.24413109  0.34955626  0.55365384     0.12800
H1519       H  0.25896447  0.33573269  0.53358407     0.11900
H1520       H  0.21257869  0.28974396  0.53400870     0.09000
H1521       H  0.22796396  0.27674599  0.51477533     0.12200
H1522       H  0.26236708  0.31369339  0.51609101     0.14100
C1523       C  0.20552242  0.42170597  0.66645811    -0.01400
C1524       C  0.21896216  0.42829053  0.65962533    -0.09400
C1525       C  0.22660257  0.44100351  0.66652810    -0.18300
C1526       C  0.22105230  0.44765818  0.68062251     0.04100
C1527       C  0.20745387  0.44094554  0.68754964     0.18300
C1528       C  0.19988660  0.42814590  0.68047673    -0.19700
C1529       C  0.20144294  0.44703868  0.70151973    -0.21000
C1530       C  0.20864790  0.45968684  0.70880327    -0.19500
C1531       C  0.22205214  0.46654605  0.70230787     0.19700
C1532       C  0.22848661  0.46067607  0.68812075     0.01800
C1533       C  0.24209738  0.46807184  0.68214746    -0.14200
C1534       C  0.24907696  0.48061403  0.69005427    -0.12000
C1535       C  0.24270799  0.48625914  0.70407819     0.01400
C1536       C  0.22911958  0.47920581  0.71004688    -0.24100
H1537       H  0.22371826  0.42369430  0.64883169     0.09400
H1538       H  0.23681711  0.44534055  0.66051073     0.12900
H1539       H  0.18955335  0.42326210  0.68598223     0.11600
H1540       H  0.19108432  0.44198117  0.70686443     0.12800
H1541       H  0.20370971  0.46411800  0.71962975     0.11900
H1542       H  0.24770479  0.46440134  0.67145954     0.09000
H1543       H  0.25956352  0.48585828  0.68518010     0.12200
H1544       H  0.22409553  0.48342642  0.72092320     0.14100
C1545       C  0.34194842  0.20987497  0.57097185    -0.01400
C1546       C  0.34858869  0.22296568  0.56356584    -0.09400
C1547       C  0.34078463  0.23060320  0.55138202    -0.18300
C1548       C  0.32593488  0.22540564  0.54616263     0.04100
C1549       C  0.31946451  0.21183226  0.55336361     0.18300
C1550       C  0.32746145  0.20424955  0.56558080    -0.19700
C1551       C  0.30490982  0.20601619  0.54851518    -0.21000
C1552       C  0.29645333  0.21357354  0.53684091    -0.19500
C1553       C  0.30229784  0.22718696  0.52979301     0.19700
C1554       C  0.31716730  0.23327557  0.53424712     0.01800
C1555       C  0.32242632  0.24713656  0.52678613    -0.14200
C1556       C  0.31317231  0.25474329  0.51562300    -0.12000
C1557       C  0.29845012  0.24878178  0.51143097     0.01400
C1558       C  0.29319422  0.23488026  0.51846002    -0.24100
H1559       H  0.35987289  0.22747422  0.56719461     0.09400
H1560       H  0.34666034  0.24060259  0.54638122     0.12900
H1561       H  0.32213135  0.19412671  0.57107443     0.11600
H1562       H  0.29995244  0.19562217  0.55389795     0.12800
H1563       H  0.28514863  0.20885060  0.53345089     0.11900
H1564       H  0.33353720  0.25252412  0.52943920     0.09000
H1565       H  0.31756912  0.26540873  0.51030523     0.12200
H1566       H  0.28183556  0.23011922  0.51529612     0.14100
C1567       C  0.42642912  0.21870524  0.66778150    -0.01400
C1568       C  0.43079841  0.23373762  0.66273310    -0.09400
C1569       C  0.44239053  0.24222711  0.67059523    -0.18300
C1570       C  0.45005055  0.23593317  0.68388080     0.04100
C1571       C  0.44553719  0.22070864  0.68897478     0.18300
C1572       C  0.43392366  0.21229847  0.68092486    -0.19700
C1573       C  0.45259275  0.21393013  0.70213105    -0.21000
C1574       C  0.46399934  0.22199710  0.71046937    -0.19500
C1575       C  0.46871762  0.23699438  0.70578907     0.19700
C1576       C  0.46193188  0.24417367  0.69236157     0.01800
C1577       C  0.46736539  0.25925779  0.68805837    -0.14200
C1578       C  0.47889545  0.26690491  0.69683403    -0.12000
C1579       C  0.48535825  0.25983944  0.71017748     0.01400
C1580       C  0.48021824  0.24484697  0.71452626    -0.24100
H1581       H  0.42517923  0.23911527  0.65272101     0.09400
H1582       H  0.44500163  0.25371700  0.66603120     0.12900
H1583       H  0.43082167  0.20066410  0.68495438     0.11600
H1584       H  0.44919890  0.20232479  0.70606352     0.12800
H1585       H  0.46917349  0.21645489  0.72066684     0.11900
H1586       H  0.46297349  0.26546205  0.67797330     0.09000
H1587       H  0.48269602  0.27846230  0.69317774     0.12200
H1588       H  0.48520889  0.23919724  0.72476283     0.14100
C1589       C  0.21164099  0.10855341  0.16949815    -0.01400
C1590       C  0.20510256  0.10233490  0.18322393    -0.09400
C1591       C  0.21272541  0.09056734  0.19161791    -0.18300
C1592       C  0.22729798  0.08453292  0.18657832     0.04100
C1593       C  0.23377811  0.09061711  0.17248896     0.18300
C1594       C  0.22595041  0.10247407  0.16412890    -0.19700
C1595       C  0.24811910  0.08494551  0.16689839    -0.21000
C1596       C  0.25628913  0.07347763  0.17511384    -0.19500
C1597       C  0.25034634  0.06742412  0.18914997     0.19700
C1598       C  0.23572351  0.07279858  0.19506279     0.01800
C1599       C  0.23027735  0.06631581  0.20930905    -0.14200
C1600       C  0.23905252  0.05514204  0.21739583    -0.12000
C1601       C  0.25351954  0.04998032  0.21161427     0.01400
C1602       C  0.25903786  0.05611316  0.19739775    -0.24100
H1603       H  0.19397748  0.10651264  0.18761622     0.09400
H1604       H  0.20687913  0.08650298  0.20203344     0.12900
H1605       H  0.23120751  0.10710056  0.15355126     0.11600
H1606       H  0.25310925  0.08948463  0.15613784     0.12800
H1607       H  0.26740873  0.06940726  0.17051759     0.11900
H1608       H  0.21933973  0.06968897  0.21461811     0.09000
H1609       H  0.23446906  0.05058490  0.22831856     0.12200
H1610       H  0.27020885  0.05219631  0.19278049     0.14100
C1611       C  0.34821703  0.92681943  0.30242106    -0.01400
C1612       C  0.33585609  0.93441973  0.31011729    -0.09400
C1613       C  0.32727479  0.94619171  0.30269138    -0.18300
C1614       C  0.33076594  0.95083039  0.28718226     0.04100
C1615       C  0.34357917  0.94342398  0.27955177     0.18300
C1616       C  0.35210820  0.93158200  0.28716510    -0.19700
C1617       C  0.34775403  0.94778659  0.26430467    -0.21000
C1618       C  0.33940571  0.95933045  0.25640230    -0.19500
C1619       C  0.32657409  0.96667623  0.26348958     0.19700
C1620       C  0.32200942  0.96249981  0.27896237     0.01800
C1621       C  0.30875485  0.97005027  0.28543525    -0.14200
C1622       C  0.30042586  0.98124092  0.27691258    -0.12000
C1623       C  0.30502031  0.98538511  0.26171721     0.01400
C1624       C  0.31817227  0.97808932  0.25510849    -0.24100
H1625       H  0.33263025  0.93126270  0.32195036     0.09400
H1626       H  0.31797709  0.95140846  0.30944561     0.12900
H1627       H  0.36168219  0.92599361  0.28101330     0.11600
H1628       H  0.35754496  0.94221751  0.25843513     0.12800
H1629       H  0.34293247  0.96244075  0.24460556     0.11900
H1630       H  0.30439344  0.96748240  0.29699405     0.09000
H1631       H  0.29030367  0.98668427  0.28229893     0.12200
H1632       H  0.32177483  0.98112670  0.24330947     0.14100
C1633       C  0.42539221  0.82594842  0.28842827    -0.01400
C1634       C  0.42840863  0.83081560  0.27303903    -0.09400
C1635       C  0.43890917  0.82262540  0.26356373    -0.18300
C1636       C  0.44686758  0.80922518  0.26922037     0.04100
C1637       C  0.44350119  0.80412574  0.28471697     0.18300
C1638       C  0.43285567  0.81244203  0.29408954    -0.19700
C1639       C  0.45095859  0.79088207  0.29089226    -0.21000
C1640       C  0.46195362  0.78271844  0.28210771    -0.19500
C1641       C  0.46578696  0.78761607  0.26694377     0.19700
C1642       C  0.45821267  0.80085386  0.26019526     0.01800
C1643       C  0.46255899  0.80527699  0.24482809    -0.14200
C1644       C  0.47419247  0.79714618  0.23671411    -0.12000
C1645       C  0.48181638  0.78428892  0.24353506     0.01400
C1646       C  0.47737443  0.77946785  0.25858758    -0.24100
H1647       H  0.42264396  0.84102387  0.26819256     0.09400
H1648       H  0.44060258  0.82717144  0.25191599     0.12900
H1649       H  0.43069863  0.80852276  0.30596217     0.11600
H1650       H  0.44838994  0.78689652  0.30267422     0.12800
H1651       H  0.46764436  0.77260358  0.28729180     0.11900
H1652       H  0.45735153  0.81507379  0.23879884     0.09000
H1653       H  0.47730004  0.80105590  0.22504638     0.12200
H1654       H  0.48315843  0.76950770  0.26397513     0.14100
C1655       C  0.34646765  0.83383130  0.39039259    -0.01400
C1656       C  0.33350252  0.84116386  0.39731274    -0.09400
C1657       C  0.32480204  0.83364482  0.40890506    -0.18300
C1658       C  0.32874988  0.81838402  0.41402885     0.04100
C1659       C  0.34208443  0.81108314  0.40723974     0.18300
C1660       C  0.35078568  0.81882658  0.39561180    -0.19700
C1661       C  0.34657611  0.79601637  0.41196763    -0.21000
C1662       C  0.33799268  0.78794117  0.42321203    -0.19500
C1663       C  0.32469533  0.79472538  0.42999071     0.19700
C1664       C  0.31989717  0.81007118  0.42553723     0.01800
C1665       C  0.30635483  0.81635927  0.43269536    -0.14200
C1666       C  0.29790669  0.80774623  0.44368229    -0.12000
C1667       C  0.30261415  0.79260412  0.44798878     0.01400
C1668       C  0.31609032  0.78619111  0.44113983    -0.24100
H1669       H  0.32980426  0.85273176  0.39367872     0.09400
H1670       H  0.31498892  0.84009904  0.41350994     0.12900
H1671       H  0.36086303  0.81300778  0.39056873     0.11600
H1672       H  0.35675561  0.79039161  0.40686235     0.12800
H1673       H  0.34173281  0.77626261  0.42656203     0.11900
H1674       H  0.30188713  0.82786316  0.43003150     0.09000
H1675       H  0.28756278  0.81302881  0.44880436     0.12200
H1676       H  0.31983796  0.77447935  0.44437920     0.14100
C1677       C  0.21366259  0.92267747  0.17404217    -0.01400
C1678       C  0.22838559  0.92707154  0.16820534    -0.09400
C1679       C  0.23728868  0.93860364  0.17562149    -0.18300
C1680       C  0.23175324  0.94619595  0.18924738     0.04100
C1681       C  0.21676876  0.94180256  0.19506544     0.18300
C1682       C  0.20795248  0.93016378  0.18749701    -0.19700
C1683       C  0.21060863  0.94907653  0.20839404    -0.21000
C1684       C  0.21901227  0.96068791  0.21610093    -0.19500
C1685       C  0.23381405  0.96523682  0.21071553     0.19700
C1686       C  0.24047276  0.95802370  0.19726319     0.01800
C1687       C  0.25555032  0.96299080  0.19245205    -0.14200
C1688       C  0.26350927  0.97479521  0.20050907    -0.12000
C1689       C  0.25678263  0.98197720  0.21362910     0.01400
C1690       C  0.24197055  0.97704173  0.21871854    -0.24100
H1691       H  0.23322008  0.92155878  0.15788021     0.09400
H1692       H  0.24844060  0.94129478  0.17035840     0.12900
H1693       H  0.19655309  0.92706766  0.19212297     0.11600
H1694       H  0.19917970  0.94579376  0.21287071     0.12800
H1695       H  0.21389537  0.96614495  0.22636217     0.11900
H1696       H  0.26152581  0.95803324  0.18251000     0.09000
H1697       H  0.27499258  0.97832632  0.19639832     0.12200
H1698       H  0.23665805  0.98250463  0.22888308     0.14100
C1699       C  0.34007851  0.11810709  0.29623016    -0.01400
C1700       C  0.32796467  0.11044592  0.30428092    -0.09400
C1701       C  0.32018125  0.09768712  0.29763780    -0.18300
C1702       C  0.32427421  0.09209000  0.28260538     0.04100
C1703       C  0.33672919  0.09971804  0.27458928     0.18300
C1704       C  0.34441028  0.11256967  0.28138762    -0.19700
C1705       C  0.34147113  0.09450679  0.25979549    -0.21000
C1706       C  0.33407956  0.08184696  0.25272804    -0.19500
C1707       C  0.32165915  0.07420043  0.26021127     0.19700
C1708       C  0.31649738  0.07922868  0.27522980     0.01800
C1709       C  0.30369212  0.07124621  0.28210473    -0.14200
C1710       C  0.29637559  0.05882277  0.27438012    -0.12000
C1711       C  0.30158866  0.05387723  0.25963010     0.01400
C1712       C  0.31428430  0.06160177  0.25265513    -0.24100
H1713       H  0.32438034  0.11424491  0.31581589     0.09400
H1714       H  0.31105332  0.09245440  0.30461408     0.12900
H1715       H  0.35375687  0.11825185  0.27496712     0.11600
H1716       H  0.35099115  0.10025222  0.25364619     0.12800
H1717       H  0.33804124  0.07807667  0.24126856     0.11900
H1718       H  0.29894539  0.07437629  0.29336650     0.09000
H1719       H  0.28657069  0.05306006  0.28002673     0.12200
H1720       H  0.31835707  0.05793143  0.24119613     0.14100
C1721       C  0.42519845  0.21566285  0.28871876    -0.01400
C1722       C  0.43219998  0.22879335  0.29568711    -0.09400
C1723       C  0.44411685  0.23699247  0.28813364    -0.18300
C1724       C  0.44955362  0.23231614  0.27322511     0.04100
C1725       C  0.44254293  0.21891560  0.26620164     0.18300
C1726       C  0.43047118  0.21079664  0.27392588    -0.19700
C1727       C  0.44766391  0.21365740  0.25153885    -0.21000
C1728       C  0.45970724  0.22137075  0.24373036    -0.19500
C1729       C  0.46681095  0.23462260  0.25032302     0.19700
C1730       C  0.46175278  0.24038311  0.26510450     0.01800
C1731       C  0.46910358  0.25400251  0.27108325    -0.14200
C1732       C  0.48103799  0.26147241  0.26280787    -0.12000
C1733       C  0.48610928  0.25565779  0.24834570     0.01400
C1734       C  0.47892776  0.24220371  0.24217143    -0.24100
H1735       H  0.42861412  0.23279317  0.30715517     0.09400
H1736       H  0.44889275  0.24686596  0.29439066     0.12900
H1737       H  0.42518599  0.20070536  0.26831564     0.11600
H1738       H  0.44238295  0.20344711  0.24611108     0.12800
H1739       H  0.46346926  0.21695707  0.23243482     0.11900
H1740       H  0.46587619  0.25927486  0.28207834     0.09000
H1741       H  0.48632840  0.27188302  0.26781155     0.12200
H1742       H  0.48266485  0.23767121  0.23090908     0.14100
C1743       C  0.33704413  0.21095455  0.38324931    -0.01400
C1744       C  0.32277301  0.20452401  0.38823556    -0.09400
C1745       C  0.31414099  0.21150415  0.40018225    -0.18300
C1746       C  0.31948590  0.22529435  0.40763819     0.04100
C1747       C  0.33397998  0.23180369  0.40259369     0.18300
C1748       C  0.34258317  0.22461864  0.39053894    -0.19700
C1749       C  0.33977796  0.24548478  0.40956311    -0.21000
C1750       C  0.33141263  0.25294289  0.42137266    -0.19500
C1751       C  0.31707382  0.24687106  0.42653845     0.19700
C1752       C  0.31093212  0.23290012  0.41982778     0.01800
C1753       C  0.29647947  0.22718095  0.42560346    -0.14200
C1754       C  0.28844468  0.23506820  0.43742350    -0.12000
C1755       C  0.29446180  0.24890976  0.44388489     0.01400
C1756       C  0.30881902  0.25472513  0.43839441    -0.24100
H1757       H  0.31801778  0.19410664  0.38279018     0.09400
H1758       H  0.30327687  0.20583277  0.40319638     0.12900
H1759       H  0.35363996  0.22969431  0.38690749     0.11600
H1760       H  0.35082740  0.25050374  0.40579772     0.12800
H1761       H  0.33618053  0.26356306  0.42647936     0.11900
H1762       H  0.29103382  0.21664319  0.42128006     0.09000
H1763       H  0.27739942  0.23028644  0.44147492     0.12200
H1764       H  0.31364354  0.26537778  0.44339046     0.14100
C1765       C  0.61290123  0.21422797  0.29177084    -0.01400
C1766       C  0.60691837  0.22819094  0.29804626    -0.09400
C1767       C  0.59569130  0.23693049  0.28995389    -0.18300
C1768       C  0.58998909  0.23196146  0.27520694     0.04100
C1769       C  0.59613700  0.21784011  0.26885289     0.18300
C1770       C  0.60743128  0.20919151  0.27710854    -0.19700
C1771       C  0.59096304  0.21236524  0.25428749    -0.21000
C1772       C  0.57965971  0.22054734  0.24590793    -0.19500
C1773       C  0.57325754  0.23441116  0.25188278     0.19700
C1774       C  0.57836626  0.24039684  0.26657642     0.01800
C1775       C  0.57153682  0.25450479  0.27199282    -0.14200
C1776       C  0.56003484  0.26220591  0.26326587    -0.12000
C1777       C  0.55493021  0.25615610  0.24888357     0.01400
C1778       C  0.56167703  0.24227659  0.24324258    -0.24100
H1779       H  0.61079752  0.23242897  0.30934306     0.09400
H1780       H  0.59167979  0.24747779  0.29561361     0.12900
H1781       H  0.61197415  0.19852679  0.27195758     0.11600
H1782       H  0.59564035  0.20162419  0.24936459     0.12800
H1783       H  0.57584206  0.21595137  0.23469685     0.11900
H1784       H  0.57476725  0.25988543  0.28294248     0.09000
H1785       H  0.55505119  0.27293119  0.26789022     0.12200
H1786       H  0.55788190  0.23751263  0.23208890     0.14100
C1787       C  0.70317723  0.20780421  0.38349754    -0.01400
C1788       C  0.71798181  0.20234971  0.38810407    -0.09400
C1789       C  0.72635168  0.20983403  0.40003608    -0.18300
C1790       C  0.72012912  0.22310041  0.40780754     0.04100
C1791       C  0.70509893  0.22853594  0.40308383     0.18300
C1792       C  0.69683559  0.22089083  0.39112278    -0.19700
C1793       C  0.69834422  0.24161680  0.41029239    -0.21000
C1794       C  0.70622742  0.24953351  0.42210478    -0.19500
C1795       C  0.72103015  0.24452414  0.42704948     0.19700
C1796       C  0.72821460  0.23120140  0.42004979     0.01800
C1797       C  0.74313515  0.22661040  0.42565584    -0.14200
C1798       C  0.75055272  0.23492475  0.43765820    -0.12000
C1799       C  0.74342999  0.24810053  0.44441572     0.01400
C1800       C  0.72866523  0.25281302  0.43901423    -0.24100
H1801       H  0.72326937  0.19234596  0.38237797     0.09400
H1802       H  0.73767346  0.20498949  0.40284148     0.12900
H1803       H  0.68533637  0.22516765  0.38786427     0.11600
H1804       H  0.68688288  0.24579818  0.40673071     0.12800
H1805       H  0.70069039  0.25965887  0.42742233     0.11900
H1806       H  0.74937239  0.21664304  0.42105098     0.09000
H1807       H  0.76198348  0.23104042  0.44159939     0.12200
H1808       H  0.72300889  0.26294829  0.44419903     0.14100
C1809       C  0.32549831  0.61140814  0.16129503    -0.01400
C1810       C  0.30998930  0.60805486  0.15700606    -0.09400
C1811       C  0.30127265  0.59679890  0.16503518    -0.18300
C1812       C  0.30779520  0.58839299  0.17773326     0.04100
C1813       C  0.32347284  0.59191156  0.18217442     0.18300
C1814       C  0.33211211  0.60329696  0.17399039    -0.19700
C1815       C  0.33049904  0.58396315  0.19469160    -0.21000
C1816       C  0.32233454  0.57244538  0.20282443    -0.19500
C1817       C  0.30694444  0.56858312  0.19863744     0.19700
C1818       C  0.29939985  0.57654566  0.18608337     0.01800
C1819       C  0.28383583  0.57217964  0.18235944    -0.14200
C1820       C  0.27621499  0.56027721  0.19058608    -0.12000
C1821       C  0.28373706  0.55238230  0.20285559     0.01400
C1822       C  0.29908383  0.55669762  0.20688891    -0.24100
H1823       H  0.30440683  0.61415770  0.14740430     0.09400
H1824       H  0.28946680  0.59495264  0.16094976     0.12900
H1825       H  0.34408430  0.60566012  0.17748399     0.11600
H1826       H  0.34243464  0.58661167  0.19816727     0.12800
H1827       H  0.32813896  0.56644610  0.21240535     0.11900
H1828       H  0.27721987  0.57764721  0.17310007     0.09000
H1829       H  0.26431470  0.55727592  0.18731310     0.12200
H1830       H  0.30501809  0.55068967  0.21639193     0.14100
C1831       C  0.42448148  0.69371234  0.15675930    -0.01400
C1832       C  0.42884128  0.68902126  0.17188762    -0.09400
C1833       C  0.44108619  0.69644323  0.17979145    -0.18300
C1834       C  0.44943198  0.70896142  0.17282520     0.04100
C1835       C  0.44515860  0.71352588  0.15738843     0.18300
C1836       C  0.43289629  0.70585520  0.14952031    -0.19700
C1837       C  0.45295467  0.72591935  0.14997301    -0.21000
C1838       C  0.46465982  0.73419241  0.15772419    -0.19500
C1839       C  0.46896268  0.73018024  0.17302766     0.19700
C1840       C  0.46162178  0.71731843  0.18070959     0.01800
C1841       C  0.46668271  0.71352465  0.19601867    -0.14200
C1842       C  0.47817294  0.72240315  0.20351739    -0.12000
C1843       C  0.48502440  0.73536515  0.19609702     0.01400
C1844       C  0.48047145  0.73908127  0.18076377    -0.24100
H1845       H  0.42261862  0.67974165  0.17787985     0.09400
H1846       H  0.44352480  0.69225054  0.19144344     0.12900
H1847       H  0.42984396  0.70953472  0.13776699     0.11600
H1848       H  0.44979485  0.72941668  0.13817668     0.12800
H1849       H  0.47029133  0.74389530  0.15175045     0.11900
H1850       H  0.46197052  0.70381751  0.20257763     0.09000
H1851       H  0.48154591  0.71918173  0.21532424     0.12200
H1852       H  0.48583751  0.74896984  0.17483866     0.14100
C1853       C  0.61597098  0.33992146  0.15702978    -0.01400
C1854       C  0.61137549  0.32483778  0.15239285    -0.09400
C1855       C  0.59920772  0.31703451  0.15998641    -0.18300
C1856       C  0.59113991  0.32406159  0.17261902     0.04100
C1857       C  0.59560710  0.33947610  0.17712673     0.18300
C1858       C  0.60784611  0.34723935  0.16930818    -0.19700
C1859       C  0.58796607  0.34698889  0.18954138    -0.21000
C1860       C  0.57607894  0.33943237  0.19773414    -0.19500
C1861       C  0.57150830  0.32419611  0.19368198     0.19700
C1862       C  0.57890886  0.31631200  0.18100486     0.01800
C1863       C  0.57380167  0.30096959  0.17734157    -0.14200
C1864       C  0.56192524  0.29377371  0.18591479    -0.12000
C1865       C  0.55473056  0.30152307  0.19845467     0.01400
C1866       C  0.55958521  0.31676406  0.20227460    -0.24100
H1867       H  0.61735279  0.31877947  0.14301345     0.09400
H1868       H  0.59654813  0.30544302  0.15574501     0.12900
H1869       H  0.61108997  0.35896643  0.17294516     0.11600
H1870       H  0.59129093  0.35875508  0.19302396     0.12800
H1871       H  0.57046122  0.34553088  0.20735162     0.11900
H1872       H  0.57872649  0.29415488  0.16794035     0.09000
H1873       H  0.55844038  0.28197945  0.18272103     0.12200
H1874       H  0.55406794  0.32288824  0.21193975     0.14100
C1875       C  0.71425794  0.42420266  0.16299600    -0.01400
C1876       C  0.72951172  0.42812147  0.15825744    -0.09400
C1877       C  0.73802616  0.43980154  0.16593229    -0.18300
C1878       C  0.73157034  0.44806408  0.17873613     0.04100
C1879       C  0.71621777  0.44388893  0.18371404     0.18300
C1880       C  0.70774256  0.43215981  0.17582339    -0.19700
C1881       C  0.70938813  0.45143174  0.19656513    -0.21000
C1882       C  0.71747910  0.46305906  0.20460958    -0.19500
C1883       C  0.73252254  0.46758369  0.19988180     0.19700
C1884       C  0.73977789  0.46026089  0.18680887     0.01800
C1885       C  0.75485856  0.46558076  0.18234834    -0.14200
C1886       C  0.76242736  0.47753383  0.19062866    -0.12000
C1887       C  0.75530255  0.48453416  0.20364224     0.01400
C1888       C  0.74032074  0.47947385  0.20816260    -0.24100
H1889       H  0.73505371  0.42215936  0.14855827     0.09400
H1890       H  0.74966944  0.44201792  0.16158586     0.12900
H1891       H  0.69601678  0.42931043  0.17974018     0.11600
H1892       H  0.69771367  0.44827900  0.20046412     0.12800
H1893       H  0.71187936  0.46862762  0.21455352     0.11900
H1894       H  0.76109376  0.46082796  0.17246300     0.09000
H1895       H  0.77397426  0.48123248  0.18685986     0.12200
H1896       H  0.73461573  0.48486311  0.21815069     0.14100
C1897       C  0.79948964  0.23860415  0.01509367    -0.01400
C1898       C  0.79354825  0.22383416  0.01916970    -0.09400
C1899       C  0.80072107  0.21477076  0.03073448    -0.18300
C1900       C  0.81414938  0.22023103  0.03877698     0.04100
C1901       C  0.82032519  0.23511248  0.03443142     0.18300
C1902       C  0.81301237  0.24409818  0.02268783    -0.19700
C1903       C  0.83368671  0.24100008  0.04192758    -0.21000
C1904       C  0.84092530  0.23253961  0.05383650    -0.19500
C1905       C  0.83496127  0.21799483  0.05859462     0.19700
C1906       C  0.82155158  0.21156699  0.05107792     0.01800
C1907       C  0.81602079  0.19685390  0.05637598    -0.14200
C1908       C  0.82331822  0.18902388  0.06875656    -0.12000
C1909       C  0.83641163  0.19547554  0.07632260     0.01400
C1910       C  0.84223820  0.20994380  0.07100017    -0.24100
H1911       H  0.78323060  0.21919579  0.01339123     0.09400
H1912       H  0.79538159  0.20358129  0.03314432     0.12900
H1913       H  0.81779081  0.25546605  0.01957768     0.11600
H1914       H  0.83851065  0.25229303  0.03863909     0.12800
H1915       H  0.85117903  0.23749468  0.05948217     0.11900
H1916       H  0.80598698  0.19109957  0.05130735     0.09000
H1917       H  0.81854604  0.17784979  0.07238613     0.12200
H1918       H  0.85233688  0.21517778  0.07662465     0.14100
C1919       C  0.75370263  0.29081456  0.01327120    -0.01400
C1920       C  0.75985316  0.30517408  0.01837190    -0.09400
C1921       C  0.75194152  0.31423542  0.02945299    -0.18300
C1922       C  0.73752589  0.30917872  0.03590736     0.04100
C1923       C  0.73124522  0.29468327  0.03056398     0.18300
C1924       C  0.73929580  0.28572884  0.01934188    -0.19700
C1925       C  0.71703913  0.28910124  0.03657287    -0.21000
C1926       C  0.70902679  0.29747732  0.04800761    -0.19500
C1927       C  0.71498110  0.31168593  0.05367712     0.19700
C1928       C  0.72922609  0.31783990  0.04760212     0.01800
C1929       C  0.73459858  0.33231573  0.05362564    -0.14200
C1930       C  0.72637576  0.34014032  0.06538507    -0.12000
C1931       C  0.71249385  0.33390688  0.07160347     0.01400
C1932       C  0.70681154  0.31969872  0.06552205    -0.24100
H1933       H  0.77090887  0.30945381  0.01382329     0.09400
H1934       H  0.75750970  0.32506490  0.03279873     0.12900
H1935       H  0.73436991  0.27466898  0.01545184     0.11600
H1936       H  0.71216087  0.27808504  0.03251460     0.12800
H1937       H  0.69813728  0.29274454  0.05252878     0.11900
H1938       H  0.74515634  0.33791169  0.04956007     0.09000
H1939       H  0.73105107  0.35115548  0.06957873     0.12200
H1940       H  0.69609782  0.31467301  0.07009424     0.14100
C1941       C  0.75507248  0.28976686  0.94604537    -0.01400
C1942       C  0.76312403  0.30136703  0.93768057    -0.09400
C1943       C  0.75545729  0.31042848  0.92641643    -0.18300
C1944       C  0.73931977  0.30826221  0.92320817     0.04100
C1945       C  0.73118443  0.29649868  0.93177172     0.18300
C1946       C  0.73909342  0.28736599  0.94297106    -0.19700
C1947       C  0.71519016  0.29392489  0.92913557    -0.21000
C1948       C  0.70708929  0.30268696  0.91803361    -0.19500
C1949       C  0.71477694  0.31424340  0.90927966     0.19700
C1950       C  0.73097779  0.31727815  0.91180338     0.01800
C1951       C  0.73812126  0.32915921  0.90273807    -0.14200
C1952       C  0.72963109  0.33745277  0.89149793    -0.12000
C1953       C  0.71371249  0.33429440  0.88884059     0.01400
C1954       C  0.70635012  0.32271718  0.89792185    -0.24100
H1955       H  0.77547351  0.30344267  0.93980784     0.09400
H1956       H  0.76251478  0.31904411  0.92047065     0.12900
H1957       H  0.73271205  0.27848667  0.94945815     0.11600
H1958       H  0.70890504  0.28501735  0.93566726     0.12800
H1959       H  0.69473140  0.30033941  0.91621849     0.11900
H1960       H  0.75029504  0.33228648  0.90394013     0.09000
H1961       H  0.73576575  0.34624297  0.88473632     0.12200
H1962       H  0.69402544  0.32021176  0.89618351     0.14100
C1963       C  0.61728801  0.34010462  0.80264475    -0.01400
C1964       C  0.61140503  0.32579371  0.80818988    -0.09400
C1965       C  0.59884230  0.31839732  0.80075952    -0.18300
C1966       C  0.59165266  0.32508886  0.78740865     0.04100
C1967       C  0.59747902  0.33972354  0.78194855     0.18300
C1968       C  0.61011530  0.34705128  0.78956478    -0.19700
C1969       C  0.59072814  0.34693918  0.76884904    -0.21000
C1970       C  0.57833533  0.33988298  0.76096231    -0.19500
C1971       C  0.57239884  0.32541874  0.76595681     0.19700
C1972       C  0.57894985  0.31779424  0.77925801     0.01800
C1973       C  0.57254317  0.30316315  0.78374145    -0.14200
C1974       C  0.56020869  0.29641866  0.77537072    -0.12000
C1975       C  0.55381783  0.30394684  0.76224989     0.01400
C1976       C  0.55997798  0.31848811  0.75764173    -0.24100
H1977       H  0.61663850  0.32005116  0.81820575     0.09400
H1978       H  0.59511203  0.30740531  0.80573721     0.12900
H1979       H  0.61434026  0.35820263  0.78520282     0.11600
H1980       H  0.59509735  0.35810947  0.76463592     0.12800
H1981       H  0.57339696  0.34575991  0.75083660     0.11900
H1982       H  0.57682201  0.29656720  0.79361849     0.09000
H1983       H  0.55574206  0.28514631  0.77916320     0.12200
H1984       H  0.55516264  0.32442505  0.74748641     0.14100
C1985       C  0.71567989  0.42375780  0.79686791    -0.01400
C1986       C  0.73115297  0.42742273  0.80099938    -0.09400
C1987       C  0.73919830  0.43954083  0.79354319    -0.18300
C1988       C  0.73201893  0.44846385  0.78156463     0.04100
C1989       C  0.71630146  0.44476493  0.77744050     0.18300
C1990       C  0.70831801  0.43257808  0.78510250    -0.19700
C1991       C  0.70866262  0.45315466  0.76558941    -0.21000
C1992       C  0.71640727  0.46498880  0.75750626    -0.19500
C1993       C  0.73193708  0.46880846  0.76116422     0.19700
C1994       C  0.73991534  0.46076116  0.77339435     0.01800
C1995       C  0.75547704  0.46532996  0.77683763    -0.14200
C1996       C  0.76286291  0.47715138  0.76830949    -0.12000
C1997       C  0.75507773  0.48480028  0.75604609     0.01400
C1998       C  0.73956644  0.48061592  0.75259439    -0.24100
H1999       H  0.73725787  0.42080339  0.80992724     0.09400
H2000       H  0.75107969  0.44148043  0.79733362     0.12900
H2001       H  0.69631809  0.43002450  0.78184361     0.11600
H2002       H  0.69666064  0.45042530  0.76242235     0.12800
H2003       H  0.71022435  0.47114747  0.74826956     0.11900
H2004       H  0.76229513  0.46002763  0.78603743     0.09000
H2005       H  0.77482712  0.48021354  0.77128671     0.12200
H2006       H  0.73336926  0.48659886  0.74324659     0.14100
C2007       C  0.84027340  0.19454421  0.88832394    -0.01400
C2008       C  0.84829137  0.20674043  0.89589510    -0.09400
C2009       C  0.84128074  0.21521863  0.90795993    -0.18300
C2010       C  0.82586257  0.21180749  0.91295106     0.04100
C2011       C  0.81787353  0.19919097  0.90553953     0.18300
C2012       C  0.82510079  0.19071335  0.89340976    -0.19700
C2013       C  0.80261922  0.19524367  0.91011801    -0.21000
C2014       C  0.79499920  0.20374208  0.92173783    -0.19500
C2015       C  0.80243061  0.21641872  0.92905380     0.19700
C2016       C  0.81802202  0.22057109  0.92486549     0.01800
C2017       C  0.82498410  0.23346707  0.93263052    -0.14200
C2018       C  0.81671114  0.24203896  0.94380554    -0.12000
C2019       C  0.80127540  0.23806102  0.94773891     0.01400
C2020       C  0.79427048  0.22509939  0.94042206    -0.24100
H2021       H  0.86008748  0.20990635  0.89251682     0.09400
H2022       H  0.84825199  0.22443460  0.91304957     0.12900
H2023       H  0.81869988  0.18131145  0.88777364     0.11600
H2024       H  0.79647316  0.18559981  0.90456712     0.12800
H2025       H  0.78313818  0.20047278  0.92491083     0.11900
H2026       H  0.83675429  0.23735925  0.93026240     0.09000
H2027       H  0.82247516  0.25190282  0.94936312     0.12200
H2028       H  0.78234728  0.22186441  0.94340891     0.14100
C2029       C  0.05221642  0.24116004  0.75399626    -0.01400
C2030       C  0.05939877  0.24784516  0.76716963    -0.09400
C2031       C  0.07095125  0.23973848  0.77546324    -0.18300
C2032       C  0.07574621  0.22454181  0.77084040     0.04100
C2033       C  0.06834031  0.21776091  0.75753653     0.18300
C2034       C  0.05672207  0.22605565  0.74930856    -0.19700
C2035       C  0.07265679  0.20277797  0.75242215    -0.21000
C2036       C  0.08435774  0.19442549  0.76010101    -0.19500
C2037       C  0.09200035  0.20080938  0.77313768     0.19700
C2038       C  0.08770505  0.21589368  0.77880518     0.01800
C2039       C  0.09565645  0.22168252  0.79212986    -0.14200
C2040       C  0.10753164  0.21301800  0.79929943    -0.12000
C2041       C  0.11196243  0.19826141  0.79353322     0.01400
C2042       C  0.10400464  0.19220296  0.78047858    -0.24100
H2043       H  0.05616462  0.25949202  0.77106759     0.09400
H2044       H  0.07594726  0.24575497  0.78537378     0.12900
H2045       H  0.05122534  0.22072514  0.73916308     0.11600
H2046       H  0.06703029  0.19752402  0.74231351     0.12800
H2047       H  0.08751199  0.18290899  0.75575026     0.11900
H2048       H  0.09306402  0.23291684  0.79727880     0.09000
H2049       H  0.11338781  0.21814035  0.80930241     0.12200
H2050       H  0.10711362  0.18075062  0.77596007     0.14100
C2051       C  0.05338510  0.28846888  0.70453842    -0.01400
C2052       C  0.05959826  0.28189377  0.69083951    -0.09400
C2053       C  0.07126038  0.28965824  0.68236932    -0.18300
C2054       C  0.07710310  0.30437231  0.68734912     0.04100
C2055       C  0.07076891  0.31094254  0.70128737     0.18300
C2056       C  0.05908061  0.30299678  0.70968478    -0.19700
C2057       C  0.07610918  0.32543777  0.70680026    -0.21000
C2058       C  0.08767160  0.33360275  0.69878363    -0.19500
C2059       C  0.09418053  0.32748104  0.68504855     0.19700
C2060       C  0.08898929  0.31280699  0.67907258     0.01800
C2061       C  0.09595221  0.30726404  0.66510057    -0.14200
C2062       C  0.10766998  0.31584835  0.65753822    -0.12000
C2063       C  0.11287650  0.33023755  0.66357921     0.01400
C2064       C  0.10593411  0.33599006  0.67730582    -0.24100
H2065       H  0.05543614  0.27066188  0.68660530     0.09400
H2066       H  0.07543691  0.28382942  0.67198794     0.12900
H2067       H  0.05437225  0.30821386  0.72026656     0.11600
H2068       H  0.07131718  0.33050116  0.71741347     0.12800
H2069       H  0.09157572  0.34479124  0.70338788     0.11900
H2070       H  0.09267181  0.29630793  0.65973944     0.09000
H2071       H  0.11276894  0.31099945  0.64700352     0.12200
H2072       H  0.10963206  0.34716133  0.68207071     0.14100
C2073       C  0.98413969  0.24282941  0.75389978    -0.01400
C2074       C  0.97935113  0.24801040  0.76871291    -0.09400
C2075       C  0.96809530  0.23970941  0.77721923    -0.18300
C2076       C  0.96123914  0.22587354  0.77111914     0.04100
C2077       C  0.96595584  0.22087365  0.75595175     0.18300
C2078       C  0.97727500  0.22931092  0.74756949    -0.19700
C2079       C  0.95942602  0.20741550  0.74922291    -0.21000
C2080       C  0.94829562  0.19870580  0.75726757    -0.19500
C2081       C  0.94348115  0.20320267  0.77226706     0.19700
C2082       C  0.94989826  0.21681128  0.77945874     0.01800
C2083       C  0.94472062  0.22067245  0.79469491    -0.14200
C2084       C  0.93348651  0.21155770  0.80231807    -0.12000
C2085       C  0.92698503  0.19828590  0.79508334     0.01400
C2086       C  0.93220699  0.19414024  0.78007775    -0.24100
H2087       H  0.98442774  0.25846227  0.77384670     0.09400
H2088       H  0.96505362  0.24442327  0.78852436     0.12900
H2089       H  0.98080356  0.22524067  0.73606355     0.11600
H2090       H  0.96296459  0.20358257  0.73764503     0.12800
H2091       H  0.94344335  0.18834526  0.75172331     0.11900
H2092       H  0.94909926  0.23066678  0.80106402     0.09000
H2093       H  0.92985534  0.21511333  0.81391247     0.12200
H2094       H  0.92747049  0.18387693  0.77430621     0.14100
C2095       C  0.92682958  0.33305799  0.66276408    -0.01400
C2096       C  0.93300573  0.33945430  0.67658439    -0.09400
C2097       C  0.94455725  0.33162274  0.68507953    -0.18300
C2098       C  0.95041774  0.31696225  0.68006645     0.04100
C2099       C  0.94424551  0.31051457  0.66599373     0.18300
C2100       C  0.93260645  0.31856396  0.65751676    -0.19700
C2101       C  0.94967098  0.29602759  0.66050259    -0.21000
C2102       C  0.96104085  0.28773462  0.66874927    -0.19500
C2103       C  0.96729236  0.29372285  0.68269047     0.19700
C2104       C  0.96210477  0.30845070  0.68853819     0.01800
C2105       C  0.96881031  0.31398083  0.70264996    -0.14200
C2106       C  0.98010097  0.30525377  0.71061458    -0.12000
C2107       C  0.98517092  0.29073056  0.70486368     0.01400
C2108       C  0.97870478  0.28504467  0.69084710    -0.24100
H2109       H  0.92882339  0.35053483  0.68109215     0.09400
H2110       H  0.94856533  0.33737069  0.69557777     0.12900
H2111       H  0.92808681  0.31346884  0.64680680     0.11600
H2112       H  0.94504253  0.29103803  0.64977464     0.12800
H2113       H  0.96494845  0.27653020  0.66420253     0.11900
H2114       H  0.96560103  0.32500255  0.70790296     0.09000
H2115       H  0.98488853  0.30996840  0.72138671     0.12200
H2116       H  0.98253341  0.27382513  0.68625759     0.14100
C2117       C  0.83122265  0.33607114  0.57445208    -0.01400
C2118       C  0.81666476  0.34221400  0.56988007    -0.09400
C2119       C  0.80788437  0.33513836  0.55800922    -0.18300
C2120       C  0.81338562  0.32156266  0.55026438     0.04100
C2121       C  0.82819623  0.31544641  0.55487567     0.18300
C2122       C  0.83691330  0.32271649  0.56676909    -0.19700
C2123       C  0.83423992  0.30202518  0.54766455    -0.21000
C2124       C  0.82583770  0.29442133  0.53600455    -0.19500
C2125       C  0.81121832  0.30009308  0.53121658     0.19700
C2126       C  0.80475766  0.31378020  0.53818584     0.01800
C2127       C  0.78996935  0.31900932  0.53273915    -0.14200
C2128       C  0.78199159  0.31094749  0.52090510    -0.12000
C2129       C  0.78842435  0.29742058  0.51417906     0.01400
C2130       C  0.80304485  0.29209133  0.51943690    -0.24100
H2131       H  0.81184588  0.35245983  0.57557832     0.09400
H2132       H  0.79679904  0.34052523  0.55525530     0.12900
H2133       H  0.84818903  0.31786867  0.56999699     0.11600
H2134       H  0.84552740  0.29731797  0.55112348     0.12800
H2135       H  0.83081871  0.28400799  0.53069231     0.11900
H2136       H  0.78426229  0.32928616  0.53734812     0.09000
H2137       H  0.77070005  0.31530679  0.51706009     0.12200
H2138       H  0.80818855  0.28167292  0.51428021     0.14100
C2139       C  0.84352484  0.42984531  0.66145735    -0.01400
C2140       C  0.84980279  0.43480586  0.67580172    -0.09400
C2141       C  0.84225567  0.44619795  0.68476080    -0.18300
C2142       C  0.82803770  0.45303298  0.67967508     0.04100
C2143       C  0.82207741  0.44848966  0.66480483     0.18300
C2144       C  0.82982327  0.43705108  0.65589208    -0.19700
C2145       C  0.80829711  0.45523212  0.65898242    -0.21000
C2146       C  0.80016925  0.46630930  0.66771232    -0.19500
C2147       C  0.80553202  0.47078163  0.68254717     0.19700
C2148       C  0.81950652  0.46416157  0.68879426     0.01800
C2149       C  0.82420239  0.46882332  0.70398123    -0.14200
C2150       C  0.81556641  0.47980332  0.71243972    -0.12000
C2151       C  0.80195160  0.48648500  0.70613679     0.01400
C2152       C  0.79695140  0.48183130  0.69120174    -0.24100
H2153       H  0.86043178  0.42965923  0.68040902     0.09400
H2154       H  0.84782079  0.44929538  0.69566097     0.12900
H2155       H  0.82497872  0.43366810  0.64466439     0.11600
H2156       H  0.80373510  0.45187125  0.64761241     0.12800
H2157       H  0.78953036  0.47130975  0.66288186     0.11900
H2158       H  0.83444175  0.46416505  0.70971888     0.09000
H2159       H  0.81961927  0.48307156  0.72401772     0.12200
H2160       H  0.78638771  0.48687180  0.68623594     0.14100
C2161       C  0.20052830  0.83921763  0.07693450    -0.01400
C2162       C  0.19497293  0.82436397  0.07265840    -0.09400
C2163       C  0.20156338  0.81624142  0.06013029    -0.18300
C2164       C  0.21404266  0.82273987  0.05139092     0.04100
C2165       C  0.21950841  0.83791891  0.05563288     0.18300
C2166       C  0.21272499  0.84598073  0.06825550    -0.19700
C2167       C  0.23187511  0.84487665  0.04741081    -0.21000
C2168       C  0.23926580  0.83688525  0.03531751    -0.19500
C2169       C  0.23439951  0.82178907  0.03110105     0.19700
C2170       C  0.22151777  0.81459914  0.03884660     0.01800
C2171       C  0.21686028  0.79947763  0.03384127    -0.14200
C2172       C  0.22505459  0.79161007  0.02210300    -0.12000
C2173       C  0.23811418  0.79850792  0.01496025     0.01400
C2174       C  0.24253992  0.81372547  0.01933105    -0.24100
H2175       H  0.18566964  0.81875547  0.07920095     0.09400
H2176       H  0.19675347  0.80480438  0.05776712     0.12900
H2177       H  0.21702252  0.85753925  0.07132653     0.11600
H2178       H  0.23603679  0.85647901  0.05052718     0.12800
H2179       H  0.24899394  0.84247495  0.02935407     0.11900
H2180       H  0.20702940  0.79332460  0.03882645     0.09000
H2181       H  0.22127885  0.77993507  0.01880478     0.12200
H2182       H  0.25248182  0.81928106  0.01368436     0.14100
C2183       C  0.28681942  0.74950519  0.01582483    -0.01400
C2184       C  0.30157089  0.75458539  0.02093282    -0.09400
C2185       C  0.31006455  0.74598888  0.03192779    -0.18300
C2186       C  0.30405343  0.73190210  0.03828429     0.04100
C2187       C  0.28893555  0.72692023  0.03332112     0.18300
C2188       C  0.28053167  0.73566438  0.02214742    -0.19700
C2189       C  0.28231206  0.71323531  0.03952456    -0.21000
C2190       C  0.29040290  0.70435655  0.05055836    -0.19500
C2191       C  0.30539599  0.70884121  0.05553408     0.19700
C2192       C  0.31247669  0.72262377  0.04939889     0.01800
C2193       C  0.32774165  0.72645448  0.05457421    -0.14200
C2194       C  0.33554682  0.71713286  0.06548578    -0.12000
C2195       C  0.32850219  0.70364975  0.07171205     0.01400
C2196       C  0.31337886  0.69957655  0.06659464    -0.24100
H2197       H  0.30670489  0.76524754  0.01631065     0.09400
H2198       H  0.32128386  0.75075187  0.03521049     0.12900
H2199       H  0.26907435  0.73165489  0.01836718     0.11600
H2200       H  0.27077315  0.70938482  0.03584135     0.12800
H2201       H  0.28492612  0.69385110  0.05516395     0.11900
H2202       H  0.33407020  0.73653501  0.05036753     0.09000
H2203       H  0.34721149  0.72063922  0.06898893     0.12200
H2204       H  0.30771394  0.68918229  0.07116807     0.14100
C2205       C  0.32776266  0.71017301  0.88680123    -0.01400
C2206       C  0.33463019  0.72391188  0.89271336    -0.09400
C2207       C  0.32734713  0.73251082  0.90459500    -0.18300
C2208       C  0.31287720  0.72759511  0.91102764     0.04100
C2209       C  0.30600108  0.71366581  0.90498631     0.18300
C2210       C  0.31339306  0.70522296  0.89302469    -0.19700
C2211       C  0.29178016  0.70811621  0.91095337    -0.21000
C2212       C  0.28420946  0.71605843  0.92292152    -0.19500
C2213       C  0.29061179  0.72981242  0.92913057     0.19700
C2214       C  0.30499066  0.73587865  0.92325452     0.01800
C2215       C  0.31076953  0.74994880  0.92988417    -0.14200
C2216       C  0.30261328  0.75758384  0.94184438    -0.12000
C2217       C  0.28848477  0.75147591  0.94759837     0.01400
C2218       C  0.28260415  0.73755995  0.94117628    -0.24100
H2219       H  0.34572313  0.72809940  0.88823567     0.09400
H2220       H  0.33338886  0.74288583  0.90854151     0.12900
H2221       H  0.30782434  0.69469514  0.88865389     0.11600
H2222       H  0.28649940  0.69749228  0.90638089     0.12800
H2223       H  0.27323381  0.71141606  0.92733491     0.11900
H2224       H  0.32150601  0.75539054  0.92605460     0.09000
H2225       H  0.30739312  0.76836722  0.94656062     0.12200
H2226       H  0.27165421  0.73274511  0.94548338     0.14100
C2227       C  0.28578646  0.55530619  0.75604143    -0.01400
C2228       C  0.27908223  0.56029413  0.77017823    -0.09400
C2229       C  0.28631025  0.57181206  0.77929191    -0.18300
C2230       C  0.30057332  0.57877617  0.77451516     0.04100
C2231       C  0.30726868  0.57369511  0.76011895     0.18300
C2232       C  0.29988282  0.56210073  0.75109767    -0.19700
C2233       C  0.32134071  0.58017528  0.75478094    -0.21000
C2234       C  0.32901369  0.59157701  0.76347137    -0.19500
C2235       C  0.32280194  0.59677990  0.77771207     0.19700
C2236       C  0.30847677  0.59053604  0.78346604     0.01800
C2237       C  0.30277333  0.59634034  0.79791418    -0.14200
C2238       C  0.31102280  0.60778290  0.80626999    -0.12000
C2239       C  0.32519124  0.61382875  0.80054614     0.01400
C2240       C  0.33092588  0.60823960  0.78620914    -0.24100
H2241       H  0.26818233  0.55523934  0.77428559     0.09400
H2242       H  0.28044565  0.57497474  0.79000747     0.12900
H2243       H  0.30516461  0.55836813  0.74016449     0.11600
H2244       H  0.32648132  0.57636641  0.74381288     0.12800
H2245       H  0.33992632  0.59633757  0.75902815     0.11900
H2246       H  0.29200580  0.59226688  0.80310096     0.09000
H2247       H  0.30627200  0.61179568  0.81731131     0.12200
H2248       H  0.34173011  0.61285700  0.78144057     0.14100
C2249       C  0.48823783  0.73318099  0.76586060    -0.01400
C2250       C  0.48282987  0.73911241  0.78015478    -0.09400
C2251       C  0.47087650  0.73161809  0.78830543    -0.18300
C2252       C  0.46381314  0.71784689  0.78237419     0.04100
C2253       C  0.46936117  0.71179146  0.76789014     0.18300
C2254       C  0.48158444  0.71937624  0.75987657    -0.19700
C2255       C  0.46240242  0.69844875  0.76131345    -0.21000
C2256       C  0.44970136  0.69126043  0.76859662    -0.19500
C2257       C  0.44386289  0.69706559  0.78278231     0.19700
C2258       C  0.45113118  0.71017870  0.79007341     0.01800
C2259       C  0.44528308  0.71517220  0.80470723    -0.14200
C2260       C  0.43221876  0.70808278  0.81135698    -0.12000
C2261       C  0.42448569  0.69575056  0.80375735     0.01400
C2262       C  0.43062611  0.69001835  0.78962467    -0.24100
H2263       H  0.48771467  0.74977763  0.78503583     0.09400
H2264       H  0.46722970  0.73715735  0.79903285     0.12900
H2265       H  0.48561850  0.71474233  0.74875995     0.11600
H2266       H  0.46658283  0.69375013  0.75028371     0.12800
H2267       H  0.44433152  0.68117090  0.76303389     0.11900
H2268       H  0.45050514  0.72453643  0.81137499     0.09000
H2269       H  0.42817737  0.71243374  0.82254623     0.12200
H2270       H  0.42490960  0.68034758  0.78369644     0.14100
C2271       C  0.20530915  0.83875643  0.88275615    -0.01400
C2272       C  0.19785936  0.82554341  0.88907617    -0.09400
C2273       C  0.20401410  0.81783995  0.90210790    -0.18300
C2274       C  0.21799215  0.82306181  0.90932255     0.04100
C2275       C  0.22540083  0.83662282  0.90307259     0.18300
C2276       C  0.21902268  0.84431614  0.88997860    -0.19700
C2277       C  0.23925648  0.84231540  0.90979146    -0.21000
C2278       C  0.24613789  0.83460422  0.92238953    -0.19500
C2279       C  0.23931548  0.82103028  0.92860107     0.19700
C2280       C  0.22503042  0.81516556  0.92230357     0.01800
C2281       C  0.21856642  0.80149759  0.92911681    -0.14200
C2282       C  0.22620905  0.79373603  0.94129687    -0.12000
C2283       C  0.24047796  0.79932210  0.94720053     0.01400
C2284       C  0.24684426  0.81313378  0.94093594    -0.24100
H2285       H  0.18729016  0.82088431  0.88384601     0.09400
H2286       H  0.19761126  0.80771546  0.90610341     0.12900
H2287       H  0.22487057  0.85461745  0.88541107     0.11600
H2288       H  0.24492892  0.85269588  0.90513823     0.12800
H2289       H  0.25697772  0.83919005  0.92718987     0.11900
H2290       H  0.20770185  0.79637392  0.92522338     0.09000
H2291       H  0.22093645  0.78318419  0.94601224     0.12200
H2292       H  0.25783411  0.81763656  0.94547849     0.14100
C2293       C  0.20918641  0.11082022  0.79035340    -0.01400
C2294       C  0.22339991  0.10578338  0.79694460    -0.09400
C2295       C  0.23281619  0.09476889  0.78937830    -0.18300
C2296       C  0.22837231  0.08829071  0.77480665     0.04100
C2297       C  0.21393936  0.09332507  0.76814409     0.18300
C2298       C  0.20455148  0.10444930  0.77590522    -0.19700
C2299       C  0.20895286  0.08723920  0.75374818    -0.21000
C2300       C  0.21799437  0.07625489  0.74579887    -0.19500
C2301       C  0.23227309  0.07107958  0.75202289     0.19700
C2302       C  0.23770058  0.07701934  0.76661570     0.01800
C2303       C  0.25223197  0.07141213  0.77233543    -0.14200
C2304       C  0.26093717  0.06038416  0.76394629    -0.12000
C2305       C  0.25553359  0.05452805  0.74958731     0.01400
C2306       C  0.24116012  0.05997012  0.74370727    -0.24100
H2307       H  0.22744913  0.11035222  0.80803945     0.09400
H2308       H  0.24352005  0.09159698  0.79528094     0.12900
H2309       H  0.19361667  0.10810669  0.77059937     0.11600
H2310       H  0.19796687  0.09100413  0.74858688     0.12800
H2311       H  0.21378378  0.07177952  0.73467999     0.11900
H2312       H  0.25723289  0.07529824  0.78325499     0.09000
H2313       H  0.27198513  0.05641233  0.76878797     0.12200
H2314       H  0.23683091  0.05554922  0.73260720     0.14100
C2315       C  0.34132936  0.12108053  0.66394947    -0.01400
C2316       C  0.32663662  0.11610260  0.65854813    -0.09400
C2317       C  0.31892378  0.10353021  0.66555197    -0.18300
C2318       C  0.32567987  0.09540575  0.67830674     0.04100
C2319       C  0.34053567  0.10054739  0.68386024     0.18300
C2320       C  0.34819528  0.11322825  0.67665984    -0.19700
C2321       C  0.34764562  0.09303591  0.69659748    -0.21000
C2322       C  0.34025528  0.08056204  0.70403867    -0.19500
C2323       C  0.32563735  0.07521443  0.69883953     0.19700
C2324       C  0.31818850  0.08245852  0.68580610     0.01800
C2325       C  0.30356798  0.07640773  0.68084721    -0.14200
C2326       C  0.29654808  0.06390230  0.68865911    -0.12000
C2327       C  0.30378200  0.05699698  0.70166968     0.01400
C2328       C  0.31838713  0.06266762  0.70664711    -0.24100
H2329       H  0.32087052  0.12203031  0.64893748     0.09400
H2330       H  0.30763205  0.10057382  0.66074001     0.12900
H2331       H  0.35957705  0.11688634  0.68094821     0.11600
H2332       H  0.35896756  0.09689447  0.70089646     0.12800
H2333       H  0.34601837  0.07505795  0.71393583     0.11900
H2334       H  0.29721857  0.08103233  0.67096808     0.09000
H2335       H  0.28528133  0.05972773  0.68453559     0.12200
H2336       H  0.32414234  0.05733320  0.71664758     0.14100
C2337       C  0.25846148  0.98638873  0.74912958    -0.01400
C2338       C  0.26550568  0.97892491  0.76193504    -0.09400
C2339       C  0.25774326  0.96695073  0.76992809    -0.18300
C2340       C  0.24254407  0.96209195  0.76537744     0.04100
C2341       C  0.23541158  0.96983408  0.75245410     0.18300
C2342       C  0.24340727  0.98175735  0.74445799    -0.19700
C2343       C  0.22031117  0.96567579  0.74758299    -0.21000
C2344       C  0.21208553  0.95392330  0.75526986    -0.19500
C2345       C  0.21881287  0.94596153  0.76793307     0.19700
C2346       C  0.23414701  0.94988319  0.77316537     0.01800
C2347       C  0.24040380  0.94134936  0.78591041    -0.14200
C2348       C  0.23180641  0.92945301  0.79311277    -0.12000
C2349       C  0.21667572  0.92562065  0.78794358     0.01400
C2350       C  0.21026897  0.93401866  0.77534321    -0.24100
H2351       H  0.27713617  0.98228968  0.76577511     0.09400
H2352       H  0.26395378  0.96180100  0.77964131     0.12900
H2353       H  0.23780217  0.98752849  0.73461319     0.11600
H2354       H  0.21480658  0.97157431  0.73776491     0.12800
H2355       H  0.20039971  0.95098335  0.75122305     0.11900
H2356       H  0.25195340  0.94348166  0.79055708     0.09000
H2357       H  0.23719832  0.92320505  0.80272963     0.12200
H2358       H  0.19858747  0.93131663  0.77118543     0.14100
C2359       C  0.34416892  0.92191337  0.66641223    -0.01400
C2360       C  0.35163715  0.92966394  0.67884035    -0.09400
C2361       C  0.34490346  0.94282115  0.68586372    -0.18300
C2362       C  0.33032017  0.94877094  0.68070572     0.04100
C2363       C  0.32276411  0.94093323  0.66808354     0.18300
C2364       C  0.32971875  0.92772557  0.66106973    -0.19700
C2365       C  0.30821843  0.94622229  0.66261886    -0.21000
C2366       C  0.30089360  0.95902584  0.66954914    -0.19500
C2367       C  0.30795943  0.96693122  0.68207139     0.19700
C2368       C  0.32286180  0.96204999  0.68773483     0.01800
C2369       C  0.32954232  0.97058990  0.70028863    -0.14200
C2370       C  0.32152553  0.98305281  0.70724164    -0.12000
C2371       C  0.30665329  0.98754874  0.70190409     0.01400
C2372       C  0.30006870  0.97956705  0.68911902    -0.24100
H2373       H  0.36283451  0.92564469  0.68322272     0.09400
H2374       H  0.35139942  0.94799910  0.69536985     0.12900
H2375       H  0.32367938  0.92187496  0.65156404     0.11600
H2376       H  0.30238693  0.94032298  0.65299350     0.12800
H2377       H  0.28955972  0.96271149  0.66513760     0.11900
H2378       H  0.34088048  0.96785965  0.70512646     0.09000
H2379       H  0.32696996  0.98908457  0.71700010     0.12200
H2380       H  0.28859158  0.98295489  0.68482975     0.14100
C2381       C  0.30127172  0.78844997  0.51595452    -0.01400
C2382       C  0.31412495  0.78079632  0.52277845    -0.09400
C2383       C  0.32262415  0.78781118  0.53492657    -0.18300
C2384       C  0.31853734  0.80283755  0.54066904     0.04100
C2385       C  0.30557368  0.81058257  0.53359238     0.18300
C2386       C  0.29712723  0.80337702  0.52144068    -0.19700
C2387       C  0.30103521  0.82549072  0.53869851    -0.21000
C2388       C  0.30899006  0.83287498  0.55082218    -0.19500
C2389       C  0.32167753  0.82553509  0.55818076     0.19700
C2390       C  0.32671978  0.81044720  0.55319846     0.01800
C2391       C  0.33963368  0.80365318  0.56107435    -0.14200
C2392       C  0.34701930  0.81141979  0.57348165    -0.12000
C2393       C  0.34186831  0.82622876  0.57850127     0.01400
C2394       C  0.32923959  0.83321804  0.57061984    -0.24100
H2395       H  0.31762545  0.76926915  0.51876060     0.09400
H2396       H  0.33230137  0.78116012  0.53958306     0.12900
H2397       H  0.28726621  0.80947642  0.51622407     0.11600
H2398       H  0.29119679  0.83147142  0.53331591     0.12800
H2399       H  0.30511117  0.84439257  0.55454196     0.11900
H2400       H  0.34425523  0.79230531  0.55800124     0.09000
H2401       H  0.35676804  0.80565056  0.57916907     0.12200
H2402       H  0.32507452  0.84465358  0.57420090     0.14100
C2403       C  0.42558290  0.82156628  0.67571807    -0.01400
C2404       C  0.43271300  0.80854505  0.66868472    -0.09400
C2405       C  0.44398863  0.79979264  0.67662729    -0.18300
C2406       C  0.44863179  0.80379016  0.69200798     0.04100
C2407       C  0.44128662  0.81691247  0.69920011     0.18300
C2408       C  0.42990384  0.82562407  0.69105298    -0.19700
C2409       C  0.44544089  0.82135045  0.71443500    -0.21000
C2410       C  0.45699600  0.81323679  0.72258166    -0.19500
C2411       C  0.46464970  0.80045360  0.71571433     0.19700
C2412       C  0.46044712  0.79540107  0.70040356     0.01800
C2413       C  0.46839665  0.78228341  0.69410678    -0.14200
C2414       C  0.48024509  0.77477779  0.70249462    -0.12000
C2415       C  0.48460822  0.78002805  0.71741396     0.01400
C2416       C  0.47663037  0.79279237  0.72402027    -0.24100
H2417       H  0.42978275  0.80513021  0.65683686     0.09400
H2418       H  0.44893668  0.79006255  0.67029445     0.12900
H2419       H  0.42439702  0.83555237  0.69673451     0.11600
H2420       H  0.43983890  0.83128665  0.72002902     0.12800
H2421       H  0.46007465  0.81708766  0.73428771     0.11900
H2422       H  0.46583841  0.77755718  0.68269115     0.09000
H2423       H  0.48614711  0.76489227  0.69714068     0.12200
H2424       H  0.47980854  0.79686912  0.73562847     0.14100
C2425       C  0.78688628  0.04972909  0.21093840    -0.01400
C2426       C  0.80055402  0.05566370  0.21787921    -0.09400
C2427       C  0.81037333  0.06590942  0.20970104    -0.18300
C2428       C  0.80684479  0.07055639  0.19417718     0.04100
C2429       C  0.79290455  0.06457620  0.18724693     0.18300
C2430       C  0.78313244  0.05431767  0.19562075    -0.19700
C2431       C  0.78876123  0.06885547  0.17197301    -0.21000
C2432       C  0.79806709  0.07913413  0.16344046    -0.19500
C2433       C  0.81178946  0.08534916  0.16994042     0.19700
C2434       C  0.81650846  0.08101738  0.18532392     0.01800
C2435       C  0.83063222  0.08743991  0.19116293    -0.14200
C2436       C  0.83933399  0.09814088  0.18234085    -0.12000
C2437       C  0.83434665  0.10282493  0.16738675     0.01400
C2438       C  0.82069134  0.09607830  0.16117586    -0.24100
H2439       H  0.80373915  0.05234280  0.22970978     0.09400
H2440       H  0.82061086  0.06998735  0.21587519     0.12900
H2441       H  0.77260684  0.04979680  0.19010053     0.11600
H2442       H  0.77817207  0.06430215  0.16661395     0.12800
H2443       H  0.79443682  0.08233369  0.15169471     0.11900
H2444       H  0.83521035  0.08456948  0.20257376     0.09000
H2445       H  0.84984642  0.10298227  0.18751605     0.12200
H2446       H  0.81678551  0.09929188  0.14953844     0.14100
C2447       C  0.73482478  0.05263195  0.25668473    -0.01400
C2448       C  0.72161116  0.05926475  0.24952636    -0.09400
C2449       C  0.71316743  0.07117165  0.25686702    -0.18300
C2450       C  0.71768443  0.07691516  0.27173580     0.04100
C2451       C  0.73093446  0.06995383  0.27909813     0.18300
C2452       C  0.73934530  0.05797537  0.27155219    -0.19700
C2453       C  0.73577635  0.07504659  0.29391427    -0.21000
C2454       C  0.72785249  0.08706331  0.30153042    -0.19500
C2455       C  0.71494205  0.09434533  0.29448281     0.19700
C2456       C  0.70962308  0.08936337  0.27950962     0.01800
C2457       C  0.69658600  0.09719882  0.27291530    -0.14200
C2458       C  0.68929360  0.10954674  0.28076912    -0.12000
C2459       C  0.69464978  0.11454482  0.29547468     0.01400
C2460       C  0.70742860  0.10672421  0.30229380    -0.24100
H2461       H  0.71777061  0.05529654  0.23809653     0.09400
H2462       H  0.70318831  0.07563364  0.25054462     0.12900
H2463       H  0.74947508  0.05284787  0.27727486     0.11600
H2464       H  0.74581780  0.06974893  0.29962627     0.12800
H2465       H  0.73195023  0.09078954  0.31296343     0.11900
H2466       H  0.69179940  0.09420053  0.26162591     0.09000
H2467       H  0.67948666  0.11524646  0.27511360     0.12200
H2468       H  0.71171999  0.11028405  0.31368406     0.14100
C2469       C  0.73213781  0.98492349  0.25733742    -0.01400
C2470       C  0.71792837  0.97955895  0.25106847    -0.09400
C2471       C  0.70905062  0.96822543  0.25890007    -0.18300
C2472       C  0.71417688  0.96181155  0.27332264     0.04100
C2473       C  0.72845282  0.96754170  0.27974316     0.18300
C2474       C  0.73719422  0.97896910  0.27178850    -0.19700
C2475       C  0.73409227  0.96168098  0.29397840    -0.21000
C2476       C  0.72604742  0.94993116  0.30185782    -0.19500
C2477       C  0.71214266  0.94376817  0.29571546     0.19700
C2478       C  0.70586843  0.94974142  0.28147437     0.01800
C2479       C  0.69170474  0.94317074  0.27592624    -0.14200
C2480       C  0.68440291  0.93088109  0.28390257    -0.12000
C2481       C  0.69087816  0.92468309  0.29769741     0.01400
C2482       C  0.70464200  0.93143918  0.30364489    -0.24100
H2483       H  0.71368066  0.98403776  0.23997408     0.09400
H2484       H  0.69833678  0.96462190  0.25326848     0.12900
H2485       H  0.74811756  0.98308826  0.27682751     0.11600
H2486       H  0.74493085  0.96607184  0.29896195     0.12800
H2487       H  0.73084934  0.94549482  0.31275170     0.11900
H2488       H  0.68602990  0.94714877  0.26537426     0.09000
H2489       H  0.67366829  0.92619208  0.27905565     0.12200
H2490       H  0.70980879  0.92693512  0.31431871     0.14100
C2491       C  0.60786307  0.82774304  0.28980092    -0.01400
C2492       C  0.59946277  0.83606157  0.27836920    -0.09400
C2493       C  0.58796443  0.82870565  0.26933711    -0.18300
C2494       C  0.58443759  0.81264450  0.27141950     0.04100
C2495       C  0.59279771  0.80431113  0.28320592     0.18300
C2496       C  0.60435588  0.81186194  0.29219223    -0.19700
C2497       C  0.58961524  0.78845330  0.28595700    -0.21000
C2498       C  0.57826033  0.78065490  0.27727728    -0.19500
C2499       C  0.56992352  0.78847025  0.26550786     0.19700
C2500       C  0.57293364  0.80454756  0.26228870     0.01800
C2501       C  0.56438182  0.81172059  0.24999164    -0.14200
C2502       C  0.55328042  0.80327940  0.24136441    -0.12000
C2503       C  0.55023416  0.78750348  0.24476611     0.01400
C2504       C  0.55862131  0.78021101  0.25687889    -0.24100
H2505       H  0.60166408  0.84839746  0.27637714     0.09400
H2506       H  0.58201609  0.83594338  0.26086834     0.12900
H2507       H  0.61074425  0.80523606  0.30093979     0.11600
H2508       H  0.59592267  0.78203618  0.29493100     0.12800
H2509       H  0.57603674  0.76838089  0.27974196     0.11900
H2510       H  0.56606576  0.82379247  0.24666730     0.09000
H2511       H  0.54697632  0.80918124  0.23205337     0.12200
H2512       H  0.55647621  0.76795677  0.25953262     0.14100
C2513       C  0.73603525  0.79383826  0.44910627    -0.01400
C2514       C  0.74091443  0.80871603  0.44415333    -0.09400
C2515       C  0.73254124  0.81695277  0.43277566    -0.18300
C2516       C  0.71893241  0.81051496  0.42580542     0.04100
C2517       C  0.71373195  0.79561098  0.43117610     0.18300
C2518       C  0.72224977  0.78746661  0.44272509    -0.19700
C2519       C  0.70020505  0.78881614  0.42480392    -0.21000
C2520       C  0.69193050  0.79633363  0.41291609    -0.19500
C2521       C  0.69699687  0.81081758  0.40705329     0.19700
C2522       C  0.71047569  0.81819107  0.41352973     0.01800
C2523       C  0.71508972  0.83279047  0.40720672    -0.14200
C2524       C  0.70692217  0.83959037  0.39479464    -0.12000
C2525       C  0.69379977  0.83220977  0.38817313     0.01400
C2526       C  0.68880240  0.81785741  0.39456191    -0.24100
H2527       H  0.75139314  0.81402433  0.44899057     0.09400
H2528       H  0.73716104  0.82826766  0.42960445     0.12900
H2529       H  0.71825679  0.77601398  0.44654462     0.11600
H2530       H  0.69610037  0.77750620  0.42890679     0.12800
H2531       H  0.68162068  0.79066013  0.40811254     0.11900
H2532       H  0.72509926  0.83922095  0.41143217     0.09000
H2533       H  0.71116698  0.85065981  0.39031465     0.12200
H2534       H  0.67863033  0.81198901  0.38974080     0.14100
C2535       C  0.82916189  0.92776987  0.16820359    -0.01400
C2536       C  0.81343881  0.93002194  0.16399386    -0.09400
C2537       C  0.80393225  0.94043614  0.17226889    -0.18300
C2538       C  0.80988315  0.94908182  0.18509765     0.04100
C2539       C  0.82582234  0.94670055  0.18937938     0.18300
C2540       C  0.83523644  0.93613674  0.18097296    -0.19700
C2541       C  0.83232234  0.95493045  0.20199121    -0.21000
C2542       C  0.82335381  0.96556916  0.21044271    -0.19500
C2543       C  0.80767092  0.96828294  0.20646786     0.19700
C2544       C  0.80066968  0.96007269  0.19375262     0.01800
C2545       C  0.78481596  0.96338197  0.19017031    -0.14200
C2546       C  0.77641482  0.97455327  0.19866148    -0.12000
C2547       C  0.78340551  0.98267760  0.21110138     0.01400
C2548       C  0.79900254  0.97934090  0.21504235    -0.24100
H2549       H  0.80831349  0.92358707  0.15434190     0.09400
H2550       H  0.79198116  0.94143061  0.16830581     0.12900
H2551       H  0.84739591  0.93460038  0.18431354     0.11600
H2552       H  0.84445750  0.95315721  0.20532541     0.12800
H2553       H  0.82875960  0.97179500  0.22011182     0.11900
H2554       H  0.77859197  0.95768513  0.18077443     0.09000
H2555       H  0.76435337  0.97686212  0.19542277     0.12200
H2556       H  0.80455029  0.98562406  0.22460224     0.14100
C2557       C  0.11541659  0.71140076  0.29434972    -0.01400
C2558       C  0.11120273  0.72641733  0.29952380    -0.09400
C2559       C  0.09899713  0.73465401  0.29242761    -0.18300
C2560       C  0.09049054  0.72813852  0.27978960     0.04100
C2561       C  0.09486940  0.71297721  0.27444565     0.18300
C2562       C  0.10714138  0.70477769  0.28175810    -0.19700
C2563       C  0.08701384  0.70608904  0.26179056    -0.21000
C2564       C  0.07491291  0.71398103  0.25425003    -0.19500
C2565       C  0.07025200  0.72888374  0.25928695     0.19700
C2566       C  0.07787615  0.73613786  0.27221730     0.01800
C2567       C  0.07248616  0.75105586  0.27703401    -0.14200
C2568       C  0.06020596  0.75849882  0.26923651    -0.12000
C2569       C  0.05288691  0.75142454  0.25635623     0.01400
C2570       C  0.05796848  0.73657764  0.25146157    -0.24100
H2571       H  0.11738872  0.73200872  0.30906965     0.09400
H2572       H  0.09661545  0.74614664  0.29707096     0.12900
H2573       H  0.11017120  0.69318710  0.27757415     0.11600
H2574       H  0.09030757  0.69453984  0.25763527     0.12800
H2575       H  0.06912514  0.70836167  0.24443300     0.11900
H2576       H  0.07743998  0.75729342  0.28682127     0.09000
H2577       H  0.05651095  0.76995360  0.27329407     0.12200
H2578       H  0.05232254  0.73094353  0.24156549     0.14100
C2579       C  0.05171672  0.79897485  0.20881700    -0.01400
C2580       C  0.05736666  0.79308480  0.19458110    -0.09400
C2581       C  0.06956553  0.80056184  0.18668101    -0.18300
C2582       C  0.07660308  0.81427665  0.19280991     0.04100
C2583       C  0.07062828  0.82038637  0.20710536     0.18300
C2584       C  0.05835216  0.81271707  0.21494640    -0.19700
C2585       C  0.07696335  0.83409819  0.21352799    -0.21000
C2586       C  0.08913119  0.84192749  0.20604080    -0.19500
C2587       C  0.09538853  0.83613984  0.19203766     0.19700
C2588       C  0.08930063  0.82216672  0.18527234     0.01800
C2589       C  0.09627412  0.81665065  0.17131718    -0.14200
C2590       C  0.10858538  0.82476450  0.16429037    -0.12000
C2591       C  0.11443671  0.83866377  0.17084502     0.01400
C2592       C  0.10775856  0.84424524  0.18478288    -0.24100
H2593       H  0.05241424  0.78253643  0.18952175     0.09400
H2594       H  0.07317646  0.79529325  0.17580211     0.12900
H2595       H  0.05404262  0.81742847  0.22592676     0.11600
H2596       H  0.07244214  0.83883412  0.22440688     0.12800
H2597       H  0.09373581  0.85255019  0.21129013     0.11900
H2598       H  0.09259040  0.80603101  0.16556009     0.09000
H2599       H  0.11357078  0.81993364  0.15369923     0.12200
H2600       H  0.11210798  0.85495848  0.19003497     0.14100
C2601       C  0.98294701  0.79912775  0.20986768    -0.01400
C2602       C  0.97855585  0.81405555  0.21512100    -0.09400
C2603       C  0.96708364  0.82267131  0.20729999    -0.18300
C2604       C  0.95951647  0.81659889  0.19386319     0.04100
C2605       C  0.96385377  0.80135230  0.18868176     0.18300
C2606       C  0.97549417  0.79282956  0.19664029    -0.19700
C2607       C  0.95656617  0.79470441  0.17557305    -0.21000
C2608       C  0.94507779  0.80290569  0.16742375    -0.19500
C2609       C  0.94065505  0.81799688  0.17212603     0.19700
C2610       C  0.94781754  0.82508245  0.18539986     0.01800
C2611       C  0.94299925  0.84038461  0.18956546    -0.14200
C2612       C  0.93151181  0.84823925  0.18099980    -0.12000
C2613       C  0.92438009  0.84119882  0.16799262     0.01400
C2614       C  0.92908011  0.82605030  0.16360818    -0.24100
H2615       H  0.98409013  0.81920949  0.22532086     0.09400
H2616       H  0.96442547  0.83403593  0.21211432     0.12900
H2617       H  0.97873049  0.78124665  0.19251613     0.11600
H2618       H  0.95977925  0.78307265  0.17158518     0.12800
H2619       H  0.93965783  0.79742493  0.15732268     0.11900
H2620       H  0.94790628  0.84668633  0.19934090     0.09000
H2621       H  0.92833143  0.85997720  0.18460086     0.12200
H2622       H  0.92364087  0.82037090  0.15364386     0.14100
C2623       C  0.92462173  0.70769577  0.29768659    -0.01400
C2624       C  0.93286991  0.70020106  0.28562323    -0.09400
C2625       C  0.94511476  0.70776369  0.27785144    -0.18300
C2626       C  0.94956036  0.72323510  0.28184780     0.04100
C2627       C  0.94156997  0.73060736  0.29444682     0.18300
C2628       C  0.92928481  0.72284380  0.30218634    -0.19700
C2629       C  0.94573765  0.74578453  0.29913483    -0.21000
C2630       C  0.95752917  0.75393889  0.29138877    -0.19500
C2631       C  0.96534365  0.74718045  0.27866180     0.19700
C2632       C  0.96149962  0.73171270  0.27371357     0.01800
C2633       C  0.96955706  0.72553857  0.26063475    -0.14200
C2634       C  0.98079615  0.73438503  0.25273998    -0.12000
C2635       C  0.98452924  0.74962710  0.25760976     0.01400
C2636       C  0.97684028  0.75590225  0.27069748    -0.24100
H2637       H  0.92980708  0.68846008  0.28194332     0.09400
H2638       H  0.95078483  0.70117790  0.26870400     0.12900
H2639       H  0.92326569  0.72880518  0.31161401     0.11600
H2640       H  0.93975394  0.75144214  0.30880067     0.12800
H2641       H  0.96040641  0.76570525  0.29524764     0.11900
H2642       H  0.96732451  0.71398486  0.25604961     0.09000
H2643       H  0.98659536  0.72920322  0.24271256     0.12200
H2644       H  0.97960684  0.76770106  0.27455475     0.14100
C2645       C  0.83765533  0.61169220  0.30119634    -0.01400
C2646       C  0.82225954  0.60736210  0.30500330    -0.09400
C2647       C  0.81458681  0.59542114  0.29686513    -0.18300
C2648       C  0.82205046  0.58735024  0.28447684     0.04100
C2649       C  0.83785372  0.59133833  0.28102613     0.18300
C2650       C  0.84549089  0.60329272  0.28942336    -0.19700
C2651       C  0.84584411  0.58363546  0.26895145    -0.21000
C2652       C  0.83833953  0.57232529  0.25991757    -0.19500
C2653       C  0.82267642  0.56836926  0.26277844     0.19700
C2654       C  0.81434916  0.57567617  0.27523118     0.01800
C2655       C  0.79861375  0.57111360  0.27773782    -0.14200
C2656       C  0.79146039  0.55988919  0.26824362    -0.12000
C2657       C  0.79963024  0.55284978  0.25587036     0.01400
C2658       C  0.81526829  0.55715942  0.25321033    -0.24100
H2659       H  0.81583627  0.61343621  0.31407157     0.09400
H2660       H  0.80271475  0.59300683  0.30040582     0.12900
H2661       H  0.85747536  0.60624219  0.28647253     0.11600
H2662       H  0.85792308  0.58655829  0.26630449     0.12800
H2663       H  0.84480008  0.56672968  0.25052732     0.11900
H2664       H  0.79146769  0.57598987  0.28691682     0.09000
H2665       H  0.77937335  0.55677776  0.27058935     0.12200
H2666       H  0.82175039  0.55168630  0.24375627     0.14100
C2667       C  0.82645002  0.71087611  0.38216245    -0.01400
C2668       C  0.81220257  0.70453998  0.38733648    -0.09400
C2669       C  0.80403601  0.71123152  0.39977105    -0.18300
C2670       C  0.80981111  0.72465692  0.40756463     0.04100
C2671       C  0.82412593  0.73127237  0.40216525     0.18300
C2672       C  0.83228901  0.72435565  0.38962035    -0.19700
C2673       C  0.83019497  0.74475314  0.40931923    -0.21000
C2674       C  0.82227703  0.75188356  0.42165839    -0.19500
C2675       C  0.80816725  0.74562721  0.42725581     0.19700
C2676       C  0.80181536  0.73181900  0.42040357     0.01800
C2677       C  0.78772665  0.72577438  0.42671693    -0.14200
C2678       C  0.78009789  0.73330748  0.43903086    -0.12000
C2679       C  0.78617847  0.74709760  0.44553851     0.01400
C2680       C  0.80032064  0.75313104  0.43965067    -0.24100
H2681       H  0.80716696  0.69432945  0.38175827     0.09400
H2682       H  0.79316257  0.70562752  0.40289249     0.12900
H2683       H  0.84327031  0.72945409  0.38580757     0.11600
H2684       H  0.84109790  0.74987855  0.40528087     0.12800
H2685       H  0.82722845  0.76237223  0.42686139     0.11900
H2686       H  0.78225697  0.71522277  0.42244559     0.09000
H2687       H  0.76928072  0.72830300  0.44341014     0.12200
H2688       H  0.80523751  0.76372579  0.44467978     0.14100
C2689       C  0.20301351  0.61613938  0.66196066    -0.01400
C2690       C  0.21548133  0.60829958  0.65467440    -0.09400
C2691       C  0.22369023  0.59646797  0.66245289    -0.18300
C2692       C  0.21966918  0.59202070  0.67789304     0.04100
C2693       C  0.20696494  0.59994943  0.68520013     0.18300
C2694       C  0.19884988  0.61184797  0.67725206    -0.19700
C2695       C  0.20237162  0.59595308  0.70041417    -0.21000
C2696       C  0.21001316  0.58408926  0.70852018    -0.19500
C2697       C  0.22252299  0.57601937  0.70166318     0.19700
C2698       C  0.22767636  0.57994824  0.68631497     0.01800
C2699       C  0.24060956  0.57161360  0.68012334    -0.14200
C2700       C  0.24794429  0.55978503  0.68875143    -0.12000
C2701       C  0.24261043  0.55579422  0.70374762     0.01400
C2702       C  0.22990978  0.56401099  0.71012487    -0.24100
H2703       H  0.21891688  0.61118685  0.64282430     0.09400
H2704       H  0.23304655  0.59097407  0.65600329     0.12900
H2705       H  0.18933460  0.61783631  0.68313026     0.11600
H2706       H  0.19271293  0.60197406  0.70605383     0.12800
H2707       H  0.20609257  0.58119289  0.72024701     0.11900
H2708       H  0.24538177  0.57396745  0.66868046     0.09000
H2709       H  0.25778376  0.55365444  0.68358253     0.12200
H2710       H  0.22579868  0.56114250  0.72179978     0.14100
C2711       C  0.24881000  0.74443469  0.51196770    -0.01400
C2712       C  0.23556646  0.75198162  0.51807584    -0.09400
C2713       C  0.22619359  0.74472029  0.52928093    -0.18300
C2714       C  0.22975412  0.72952881  0.53484289     0.04100
C2715       C  0.24303361  0.72175950  0.52841054     0.18300
C2716       C  0.25240825  0.72924049  0.51711016    -0.19700
C2717       C  0.24694427  0.70661830  0.53338196    -0.21000
C2718       C  0.23806163  0.69908042  0.54476745    -0.19500
C2719       C  0.22509419  0.70652697  0.55151667     0.19700
C2720       C  0.22069738  0.72183130  0.54662336     0.01800
C2721       C  0.20753268  0.72881796  0.55387828    -0.14200
C2722       C  0.19923038  0.72100803  0.56559005    -0.12000
C2723       C  0.20367824  0.70597645  0.57049513     0.01400
C2724       C  0.21657955  0.69877596  0.56326569    -0.24100
H2725       H  0.23242877  0.76369165  0.51427525     0.09400
H2726       H  0.21628559  0.75137587  0.53336414     0.12900
H2727       H  0.26256899  0.72324459  0.51239485     0.11600
H2728       H  0.25699964  0.70059128  0.52849365     0.12800
H2729       H  0.24145163  0.68738798  0.54842648     0.11900
H2730       H  0.20340537  0.74037452  0.55091604     0.09000
H2731       H  0.18940417  0.72696294  0.57094042     0.12200
H2732       H  0.22010626  0.68709087  0.56675465     0.14100
C2733       C  0.61364674  0.21744754  0.67190192    -0.01400
C2734       C  0.61104257  0.23329271  0.66842863    -0.09400
C2735       C  0.59938160  0.24177055  0.67607311    -0.18300
C2736       C  0.58980873  0.23466239  0.68756341     0.04100
C2737       C  0.59250186  0.21859622  0.69113348     0.18300
C2738       C  0.60433124  0.21018755  0.68333889    -0.19700
C2739       C  0.58336003  0.21100980  0.70244761    -0.21000
C2740       C  0.57163432  0.21907282  0.71038644    -0.19500
C2741       C  0.56872574  0.23490959  0.70717334     0.19700
C2742       C  0.57771206  0.24292372  0.69565248     0.01800
C2743       C  0.57417742  0.25886365  0.69272500    -0.14200
C2744       C  0.56230121  0.26650399  0.70091616    -0.12000
C2745       C  0.55358180  0.25862756  0.71235900     0.01400
C2746       C  0.55686418  0.24280279  0.71543372    -0.24100
H2747       H  0.61813817  0.23933990  0.65983821     0.09400
H2748       H  0.59823866  0.25388810  0.67272209     0.12900
H2749       H  0.60612517  0.19791690  0.68609551     0.11600
H2750       H  0.58532398  0.19875911  0.70521647     0.12800
H2751       H  0.56480118  0.21287659  0.71912002     0.11900
H2752       H  0.58032442  0.26580003  0.68416658     0.09000
H2753       H  0.56003318  0.27873635  0.69832896     0.12200
H2754       H  0.55011446  0.23656813  0.72421172     0.14100
C2755       C  0.73955444  0.25087784  0.51346778    -0.01400
C2756       C  0.72520777  0.25713098  0.51843387    -0.09400
C2757       C  0.71691380  0.25027406  0.53075696    -0.18300
C2758       C  0.72277781  0.23687873  0.53859663     0.04100
C2759       C  0.73730617  0.23055606  0.53342898     0.18300
C2760       C  0.74545349  0.23750969  0.52097388    -0.19700
C2761       C  0.74373573  0.21739471  0.54080186    -0.21000
C2762       C  0.73606306  0.21033777  0.55327870    -0.19500
C2763       C  0.72173804  0.21622708  0.55864478     0.19700
C2764       C  0.71484090  0.22955969  0.55139644     0.01800
C2765       C  0.70032644  0.23494388  0.55730805    -0.14200
C2766       C  0.69302240  0.22739602  0.56985442    -0.12000
C2767       C  0.69988417  0.21425628  0.57697054     0.01400
C2768       C  0.71428418  0.20879133  0.57125999    -0.24100
H2769       H  0.72038418  0.26747157  0.51285151     0.09400
H2770       H  0.70602115  0.25581195  0.53391771     0.12900
H2771       H  0.75657087  0.23258749  0.51727591     0.11600
H2772       H  0.75481822  0.21254561  0.53692324     0.12800
H2773       H  0.74137256  0.20017269  0.55876185     0.11900
H2774       H  0.69426766  0.24491632  0.55247734     0.09000
H2775       H  0.68186642  0.23188152  0.57386491     0.12200
H2776       H  0.71986073  0.19875007  0.57666015     0.14100
C2777       C  0.75338526  0.55292073  0.20462325    -0.01400
C2778       C  0.75966701  0.55873094  0.19061521    -0.09400
C2779       C  0.75174952  0.57006389  0.18189662    -0.18300
C2780       C  0.73714678  0.57607257  0.18691049     0.04100
C2781       C  0.73082018  0.57023848  0.20117959     0.18300
C2782       C  0.73890451  0.55873737  0.20982540    -0.19700
C2783       C  0.71651411  0.57599514  0.20678329    -0.21000
C2784       C  0.70842841  0.58757470  0.19861352    -0.19500
C2785       C  0.71436690  0.59359373  0.18455268     0.19700
C2786       C  0.72871167  0.58778798  0.17839198     0.01800
C2787       C  0.73401164  0.59401452  0.16399159    -0.14200
C2788       C  0.72572776  0.60584770  0.15634015    -0.12000
C2789       C  0.71186286  0.61195479  0.16267880     0.01400
C2790       C  0.70612205  0.60553792  0.17670326    -0.24100
H2791       H  0.77082922  0.55449990  0.18629642     0.09400
H2792       H  0.75747127  0.57393763  0.17134571     0.12900
H2793       H  0.73392689  0.55437590  0.22066751     0.11600
H2794       H  0.71160511  0.57161027  0.21764361     0.12800
H2795       H  0.69746861  0.59189217  0.20336189     0.11900
H2796       H  0.74453978  0.59003563  0.15829651     0.09000
H2797       H  0.73034680  0.61022783  0.14538289     0.12200
H2798       H  0.69539843  0.61003460  0.18177384     0.14100
C2799       C  0.61763980  0.70181340  0.15933729    -0.01400
C2800       C  0.61306466  0.71673131  0.15409824    -0.09400
C2801       C  0.60027258  0.72444879  0.16071617    -0.18300
C2802       C  0.59152605  0.71751021  0.17293819     0.04100
C2803       C  0.59609281  0.70234233  0.17815175     0.18300
C2804       C  0.60895317  0.69466768  0.17131969    -0.19700
C2805       C  0.58790810  0.69496168  0.19029134    -0.21000
C2806       C  0.57542156  0.70243269  0.19758357    -0.19500
C2807       C  0.57073571  0.71742676  0.19284648     0.19700
C2808       C  0.57856883  0.72512853  0.18031618     0.01800
C2809       C  0.57313942  0.74015147  0.17582482    -0.14200
C2810       C  0.56070764  0.74731171  0.18366801    -0.12000
C2811       C  0.55328449  0.73982001  0.19624936     0.01400
C2812       C  0.55829992  0.72480908  0.20068005    -0.24100
H2813       H  0.61942451  0.72268284  0.14490539     0.09400
H2814       H  0.59765918  0.73590790  0.15608700     0.12900
H2815       H  0.61221017  0.68313014  0.17549739     0.11600
H2816       H  0.59129809  0.68338381  0.19430037     0.12800
H2817       H  0.56943813  0.69646601  0.20706879     0.11900
H2818       H  0.57825014  0.74671906  0.16633403     0.09000
H2819       H  0.55701806  0.75888375  0.17994393     0.12200
H2820       H  0.55253448  0.71882831  0.21029760     0.14100
C2821       C  0.78616263  0.05409765  0.74938588    -0.01400
C2822       C  0.78015178  0.06055330  0.76321343    -0.09400
C2823       C  0.78858839  0.07168771  0.77164269    -0.18300
C2824       C  0.80348073  0.07682623  0.76652394     0.04100
C2825       C  0.80969202  0.07010852  0.75260052     0.18300
C2826       C  0.80100938  0.05889162  0.74416359    -0.19700
C2827       C  0.82450529  0.07465678  0.74718660    -0.21000
C2828       C  0.83325696  0.08581990  0.75526379    -0.19500
C2829       C  0.82738276  0.09277026  0.76891603     0.19700
C2830       C  0.81239838  0.08837893  0.77472582     0.01800
C2831       C  0.80693370  0.09582567  0.78845625    -0.14200
C2832       C  0.81596590  0.10704239  0.79613076    -0.12000
C2833       C  0.83079266  0.11130221  0.79050397     0.01400
C2834       C  0.83640386  0.10411064  0.77680860    -0.24100
H2835       H  0.76876148  0.05703605  0.76758528     0.09400
H2836       H  0.78307004  0.07599299  0.78213219     0.12900
H2837       H  0.80584135  0.05388443  0.73353816     0.11600
H2838       H  0.82935132  0.06956037  0.73661558     0.12800
H2839       H  0.84467678  0.08908970  0.75075859     0.11900
H2840       H  0.79567276  0.09335680  0.79358380     0.09000
H2841       H  0.81111942  0.11244231  0.80650872     0.12200
H2842       H  0.84785142  0.10720625  0.77228607     0.14100
C2843       C  0.69626315  0.11777048  0.66290869    -0.01400
C2844       C  0.70963307  0.11115393  0.65602551    -0.09400
C2845       C  0.71741452  0.09861004  0.66306660    -0.18300
C2846       C  0.71211289  0.09219449  0.67738958     0.04100
C2847       C  0.69818692  0.09845983  0.68401598     0.18300
C2848       C  0.69043245  0.11106894  0.67676687    -0.19700
C2849       C  0.69220986  0.09227822  0.69798976    -0.21000
C2850       C  0.69994870  0.08017700  0.70571429    -0.19500
C2851       C  0.71392647  0.07403055  0.69972561     0.19700
C2852       C  0.72019262  0.07992030  0.68544377     0.01800
C2853       C  0.73443167  0.07345808  0.67999848    -0.14200
C2854       C  0.74209579  0.06169719  0.68835272    -0.12000
C2855       C  0.73592040  0.05590005  0.70242004     0.01400
C2856       C  0.72176988  0.06211498  0.70802197    -0.24100
H2857       H  0.71437641  0.11577925  0.64523140     0.09400
H2858       H  0.72762382  0.09431079  0.65702799     0.12900
H2859       H  0.67997665  0.11578526  0.68217084     0.11600
H2860       H  0.68153630  0.09693115  0.70306323     0.12800
H2861       H  0.69506563  0.07572924  0.71656113     0.11900
H2862       H  0.74007355  0.07731004  0.66939345     0.09000
H2863       H  0.75301434  0.05716458  0.68372953     0.12200
H2864       H  0.71686675  0.05773559  0.71889213     0.14100
C2865       C  0.05551185  0.80387935  0.74887452    -0.01400
C2866       C  0.06043145  0.81854398  0.74327360    -0.09400
C2867       C  0.07185258  0.82722663  0.75120906    -0.18300
C2868       C  0.07884314  0.82148466  0.76510613     0.04100
C2869       C  0.07380766  0.80660767  0.77074550     0.18300
C2870       C  0.06225731  0.79803761  0.76267989    -0.19700
C2871       C  0.08039598  0.80028539  0.78436720    -0.21000
C2872       C  0.09202707  0.80832249  0.79245808    -0.19500
C2873       C  0.09734297  0.82292354  0.78717554     0.19700
C2874       C  0.09075524  0.82982143  0.77351289     0.01800
C2875       C  0.09650518  0.84467232  0.76883710    -0.14200
C2876       C  0.10858487  0.85207277  0.77710070    -0.12000
C2877       C  0.11534199  0.84501951  0.79032833     0.01400
C2878       C  0.10941575  0.83052972  0.79540271    -0.24100
H2879       H  0.05542908  0.82338685  0.73265677     0.09400
H2880       H  0.07501077  0.83834328  0.74610533     0.12900
H2881       H  0.05858735  0.78671188  0.76714993     0.11600
H2882       H  0.07660359  0.78896830  0.78874426     0.12800
H2883       H  0.09697517  0.80301771  0.80289025     0.11900
H2884       H  0.09200169  0.85083829  0.75877870     0.09000
H2885       H  0.11267122  0.86335807  0.77298566     0.12200
H2886       H  0.11443408  0.82485017  0.80557737     0.14100
C2887       C  0.11081941  0.70742096  0.65935379    -0.01400
C2888       C  0.10411245  0.72048106  0.65194384    -0.09400
C2889       C  0.09291011  0.72965351  0.65950281    -0.18300
C2890       C  0.08793625  0.72608985  0.67487311     0.04100
C2891       C  0.09418341  0.71243266  0.68211615     0.18300
C2892       C  0.10553247  0.70331986  0.67438405    -0.19700
C2893       C  0.08917518  0.70803173  0.69710009    -0.21000
C2894       C  0.07819591  0.71700573  0.70512521    -0.19500
C2895       C  0.07216066  0.73075565  0.69848370     0.19700
C2896       C  0.07701080  0.73557297  0.68330210     0.01800
C2897       C  0.07090060  0.74980724  0.67734231    -0.14200
C2898       C  0.06024790  0.75871232  0.68598465    -0.12000
C2899       C  0.05527611  0.75377532  0.70081588     0.01400
C2900       C  0.06134411  0.73977549  0.70699884    -0.24100
H2901       H  0.10755056  0.72382417  0.64022320     0.09400
H2902       H  0.08836972  0.73945352  0.65295617     0.12900
H2903       H  0.11038430  0.69317004  0.68026296     0.11600
H2904       H  0.09379497  0.69757942  0.70266565     0.12800
H2905       H  0.07454660  0.71326629  0.71669966     0.11900
H2906       H  0.07420720  0.75448007  0.66609633     0.09000
H2907       H  0.05580203  0.76948882  0.68093821     0.12200
H2908       H  0.05765919  0.73585113  0.71850555     0.14100
C2909       C  0.79790050  0.80109753  0.01308569    -0.01400
C2910       C  0.79210098  0.81578466  0.01753779    -0.09400
C2911       C  0.79950971  0.82448607  0.02921288    -0.18300
C2912       C  0.81301529  0.81869413  0.03690413     0.04100
C2913       C  0.81887326  0.80379214  0.03227798     0.18300
C2914       C  0.81135473  0.79521948  0.02045543    -0.19700
C2915       C  0.83213960  0.79745475  0.03954606    -0.21000
C2916       C  0.83973488  0.80559489  0.05141382    -0.19500
C2917       C  0.83427091  0.82028500  0.05625317     0.19700
C2918       C  0.82086548  0.82708282  0.04905594     0.01800
C2919       C  0.81590531  0.84196728  0.05436966    -0.14200
C2920       C  0.82386909  0.84970642  0.06634486    -0.12000
C2921       C  0.83702454  0.84293702  0.07349319     0.01400
C2922       C  0.84215644  0.82819997  0.06831324    -0.24100
H2923       H  0.78172563  0.82059696  0.01201272     0.09400
H2924       H  0.79429327  0.83564132  0.03197873     0.12900
H2925       H  0.81591973  0.78382925  0.01712907     0.11600
H2926       H  0.83664418  0.78609134  0.03606665     0.12800
H2927       H  0.84995730  0.80035514  0.05685206     0.11900
H2928       H  0.80593333  0.84800193  0.04952551     0.09000
H2929       H  0.81962835  0.86110803  0.06990990     0.12200
H2930       H  0.85225361  0.82272154  0.07369981     0.14100
C2931       C  0.71684385  0.71221229  0.08050157    -0.01400
C2932       C  0.71008796  0.72616731  0.07499468    -0.09400
C2933       C  0.71686133  0.73455755  0.06272469    -0.18300
C2934       C  0.73074778  0.72927296  0.05543912     0.04100
C2935       C  0.73781565  0.71535176  0.06130384     0.18300
C2936       C  0.73087675  0.70702863  0.07369854    -0.19700
C2937       C  0.75167637  0.70968167  0.05463384    -0.21000
C2938       C  0.75859345  0.71743257  0.04210278    -0.19500
C2939       C  0.75180534  0.73102746  0.03590793     0.19700
C2940       C  0.73781228  0.73720844  0.04249867     0.01800
C2941       C  0.73145384  0.75096632  0.03573250    -0.14200
C2942       C  0.73868152  0.75821477  0.02297453    -0.12000
C2943       C  0.75246314  0.75206074  0.01652764     0.01400
C2944       C  0.75895163  0.73845476  0.02309715    -0.24100
H2945       H  0.69941113  0.73071755  0.08006222     0.09400
H2946       H  0.71086289  0.74509398  0.05918641     0.12900
H2947       H  0.73634574  0.69633495  0.07780722     0.11600
H2948       H  0.75715981  0.69910817  0.05907390     0.12800
H2949       H  0.76928768  0.71269338  0.03715091     0.11900
H2950       H  0.72088826  0.75641795  0.03996711     0.09000
H2951       H  0.73344463  0.76874639  0.01817712     0.12200
H2952       H  0.76963927  0.73358959  0.01824215     0.14100
C2953       C  0.92433306  0.84020902  0.78906878    -0.01400
C2954       C  0.93195899  0.82754660  0.79626551    -0.09400
C2955       C  0.94443581  0.81993726  0.78896067    -0.18300
C2956       C  0.94981122  0.82470516  0.77404282     0.04100
C2957       C  0.94227193  0.83770722  0.76684420     0.18300
C2958       C  0.92971071  0.84529517  0.77435988    -0.19700
C2959       C  0.94723817  0.84299626  0.75212639    -0.21000
C2960       C  0.95947184  0.83556200  0.74432706    -0.19500
C2961       C  0.96702943  0.82261836  0.75102189     0.19700
C2962       C  0.96231944  0.81700302  0.76599117     0.01800
C2963       C  0.97025188  0.80382861  0.77218053    -0.14200
C2964       C  0.98225298  0.79652825  0.76385456    -0.12000
C2965       C  0.98687078  0.80205800  0.74910325     0.01400
C2966       C  0.97922179  0.81518047  0.74277942    -0.24100
H2967       H  0.92826797  0.82328587  0.80760513     0.09400
H2968       H  0.94956031  0.81031378  0.79532706     0.12900
H2969       H  0.92410610  0.85512459  0.76861249     0.11600
H2970       H  0.94157598  0.85292656  0.74656988     0.12800
H2971       H  0.96299124  0.83992214  0.73293040     0.11900
H2972       H  0.96743284  0.79877562  0.78339108     0.09000
H2973       H  0.98793712  0.78642921  0.76905688     0.12200
H2974       H  0.98264786  0.81954646  0.73135214     0.14100
C2975       C  0.78480246  0.98622325  0.74831477    -0.01400
C2976       C  0.79944324  0.98170750  0.74239441    -0.09400
C2977       C  0.80826151  0.97007063  0.74973434    -0.18300
C2978       C  0.80268144  0.96242963  0.76332841     0.04100
C2979       C  0.78771664  0.96687801  0.76917812     0.18300
C2980       C  0.77901265  0.97873656  0.76173739    -0.19700
C2981       C  0.78148113  0.95940289  0.78237285    -0.21000
C2982       C  0.78975050  0.94752004  0.78986453    -0.19500
C2983       C  0.80455496  0.94295014  0.78447353     0.19700
C2984       C  0.81132137  0.95044617  0.77122977     0.01800
C2985       C  0.82645413  0.94562939  0.76651194    -0.14200
C2986       C  0.83434090  0.93365611  0.77437654    -0.12000
C2987       C  0.82750441  0.92602233  0.78721576     0.01400
C2988       C  0.81261504  0.93086703  0.79225493    -0.24100
H2989       H  0.80420530  0.98724568  0.73201273     0.09400
H2990       H  0.81933903  0.96726860  0.74437833     0.12900
H2991       H  0.76764667  0.98204579  0.76635511     0.11600
H2992       H  0.77007070  0.96269826  0.78687621     0.12800
H2993       H  0.78453734  0.94188723  0.79998515     0.11900
H2994       H  0.83258718  0.95090672  0.75682682     0.09000
H2995       H  0.84590937  0.93045663  0.77031216     0.12200
H2996       H  0.80712543  0.92515208  0.80216214     0.14100
C2997       C  0.83648556  0.83946888  0.88338395    -0.01400
C2998       C  0.84435088  0.82701748  0.89071550    -0.09400
C2999       C  0.83748681  0.81881014  0.90310612    -0.18300
C3000       C  0.82237492  0.82275156  0.90864259     0.04100
C3001       C  0.81453710  0.83554306  0.90137807     0.18300
C3002       C  0.82162363  0.84375436  0.88899218    -0.19700
C3003       C  0.79954471  0.83995929  0.90635098    -0.21000
C3004       C  0.79203332  0.83180131  0.91826815    -0.19500
C3005       C  0.79934514  0.81905609  0.92556385     0.19700
C3006       C  0.81467402  0.81439174  0.92096772     0.01800
C3007       C  0.82152523  0.80148765  0.92883115    -0.14200
C3008       C  0.81341093  0.79347165  0.94057152    -0.12000
C3009       C  0.79825103  0.79802980  0.94494486     0.01400
C3010       C  0.79134212  0.81090766  0.93741459    -0.24100
H3011       H  0.85586658  0.82341571  0.88685169     0.09400
H3012       H  0.84427831  0.80934706  0.90799083     0.12900
H3013       H  0.81532587  0.85335572  0.88359542     0.11600
H3014       H  0.79351155  0.84971901  0.90088144     0.12800
H3015       H  0.78037494  0.83544943  0.92175405     0.11900
H3016       H  0.83311404  0.79724962  0.92616784     0.09000
H3017       H  0.81909049  0.78364188  0.94626862     0.12200
H3018       H  0.77964005  0.81459637  0.94072428     0.14100
C3019       C  0.98756908  0.75397302  0.70087564    -0.01400
C3020       C  0.98223638  0.75938718  0.68630347    -0.09400
C3021       C  0.97050511  0.75139699  0.67811859    -0.18300
C3022       C  0.96360413  0.73762846  0.68428465     0.04100
C3023       C  0.96910124  0.73213756  0.69903733     0.18300
C3024       C  0.98096977  0.74025859  0.70710998    -0.19700
C3025       C  0.96265407  0.71861327  0.70572697    -0.21000
C3026       C  0.95077920  0.71043205  0.69813500    -0.19500
C3027       C  0.94506713  0.71552661  0.68362470     0.19700
C3028       C  0.95141264  0.72915882  0.67643501     0.01800
C3029       C  0.94522264  0.73370268  0.66174241    -0.14200
C3030       C  0.93320054  0.72515047  0.65459900    -0.12000
C3031       C  0.92686650  0.71176777  0.66177330     0.01400
C3032       C  0.93297409  0.70704133  0.67630769    -0.24100
H3033       H  0.98712307  0.76992458  0.68115947     0.09400
H3034       H  0.96705578  0.75635800  0.66703791     0.12900
H3035       H  0.98496980  0.73593354  0.71836873     0.11600
H3036       H  0.96678237  0.71435721  0.71696209     0.12800
H3037       H  0.94600836  0.70003654  0.70367936     0.11900
H3038       H  0.94940236  0.74381739  0.65544384     0.09000
H3039       H  0.92891779  0.72913151  0.64335476     0.12200
H3040       H  0.92828301  0.69677891  0.68211016     0.14100
C3041       C  0.83782016  0.61796588  0.66763034    -0.01400
C3042       C  0.84381565  0.61297815  0.68208223    -0.09400
C3043       C  0.83676870  0.60074207  0.69034143    -0.18300
C3044       C  0.82336547  0.59298203  0.68440637     0.04100
C3045       C  0.81735953  0.59798253  0.66970170     0.18300
C3046       C  0.82458510  0.61031204  0.66150722    -0.19700
C3047       C  0.80415609  0.59066401  0.66324328    -0.21000
C3048       C  0.79675517  0.57844085  0.67108722    -0.19500
C3049       C  0.80236405  0.57323342  0.68559305     0.19700
C3050       C  0.81573502  0.58044391  0.69249101     0.01800
C3051       C  0.82088055  0.57477211  0.70718032    -0.14200
C3052       C  0.81317640  0.56242419  0.71460860    -0.12000
C3053       C  0.80005229  0.55529942  0.70776170     0.01400
C3054       C  0.79467231  0.56082108  0.69324659    -0.24100
H3055       H  0.85394120  0.61862306  0.68722598     0.09400
H3056       H  0.84211370  0.59768995  0.70135575     0.12900
H3057       H  0.81984069  0.61386165  0.65029043     0.11600
H3058       H  0.79951365  0.59441946  0.65203047     0.12800
H3059       H  0.78656925  0.57301609  0.66575941     0.11900
H3060       H  0.83082856  0.57959093  0.71327587     0.09000
H3061       H  0.81754319  0.55848612  0.72586201     0.12200
H3062       H  0.78450333  0.55542781  0.68784604     0.14100
C3063       C  0.78853847  0.74475309  0.51396239    -0.01400
C3064       C  0.78326679  0.73018980  0.51946742    -0.09400
C3065       C  0.79168692  0.72194443  0.53082380    -0.18300
C3066       C  0.80575384  0.72804862  0.53714813     0.04100
C3067       C  0.81107146  0.74281971  0.53150449     0.18300
C3068       C  0.80252188  0.75094405  0.52000709    -0.19700
C3069       C  0.82481532  0.74949969  0.53748139    -0.21000
C3070       C  0.83331093  0.74194128  0.54914187    -0.19500
C3071       C  0.82834102  0.72745611  0.55504643     0.19700
C3072       C  0.81460776  0.72018179  0.54901289     0.01800
C3073       C  0.81030461  0.70542199  0.55522585    -0.14200
C3074       C  0.81898004  0.69846161  0.56723254    -0.12000
C3075       C  0.83225974  0.70588404  0.57348759     0.01400
C3076       C  0.83696565  0.72030819  0.56711596    -0.24100
H3077       H  0.77250091  0.72511775  0.51502834     0.09400
H3078       H  0.78677420  0.71089889  0.53449468     0.12900
H3079       H  0.80671825  0.76221814  0.51587992     0.11600
H3080       H  0.82894583  0.76074187  0.53321821     0.12800
H3081       H  0.84380990  0.74752054  0.55364097     0.11900
H3082       H  0.80025895  0.69895332  0.55112043     0.09000
H3083       H  0.81513593  0.68720356  0.57162665     0.12200
H3084       H  0.84721140  0.72623215  0.57170542     0.14100
C3085       C  0.69287386  0.92541285  0.66525171    -0.01400
C3086       C  0.68471724  0.93474684  0.67601503    -0.09400
C3087       C  0.69217031  0.94715839  0.68369681    -0.18300
C3088       C  0.70816429  0.95057090  0.68090743     0.04100
C3089       C  0.71631608  0.94109643  0.66988947     0.18300
C3090       C  0.70864981  0.92876226  0.66219684    -0.19700
C3091       C  0.73214565  0.94386981  0.66666001    -0.21000
C3092       C  0.74011934  0.95594312  0.67408764    -0.19500
C3093       C  0.73247708  0.96550560  0.68497080     0.19700
C3094       C  0.71640938  0.96295256  0.68864070     0.01800
C3095       C  0.70939942  0.97284309  0.69995487    -0.14200
C3096       C  0.71802076  0.98469527  0.70728582    -0.12000
C3097       C  0.73379816  0.98720075  0.70347333     0.01400
C3098       C  0.74090982  0.97758278  0.69226705    -0.24100
H3099       H  0.67247586  0.93250756  0.67849952     0.09400
H3100       H  0.68510498  0.95381755  0.69176277     0.12900
H3101       H  0.71517271  0.92153773  0.65405223     0.11600
H3102       H  0.73841544  0.93665202  0.65829828     0.12800
H3103       H  0.75237627  0.95780612  0.67130216     0.11900
H3104       H  0.69732908  0.97166933  0.70347322     0.09000
H3105       H  0.71226912  0.99199186  0.71593287     0.12200
H3106       H  0.75316600  0.97933233  0.68937241     0.14100
C3107       C  0.60993451  0.82741131  0.67336423    -0.01400
C3108       C  0.60214903  0.83479289  0.68580255    -0.09400
C3109       C  0.59031261  0.82709892  0.69404507    -0.18300
C3110       C  0.58584109  0.81161717  0.69014715     0.04100
C3111       C  0.59358425  0.80425625  0.67738058     0.18300
C3112       C  0.60543446  0.81215360  0.66916764    -0.19700
C3113       C  0.58961291  0.78895553  0.67297330    -0.21000
C3114       C  0.57830153  0.78063539  0.68119479    -0.19500
C3115       C  0.57068661  0.78741751  0.69401764     0.19700
C3116       C  0.57418903  0.80307295  0.69859256     0.01800
C3117       C  0.56605704  0.80936438  0.71158128    -0.14200
C3118       C  0.55529741  0.80032456  0.71992624    -0.12000
C3119       C  0.55215774  0.78480058  0.71556633     0.01400
C3120       C  0.55973470  0.77850898  0.70244450    -0.24100
H3121       H  0.60516743  0.84659441  0.68932082     0.09400
H3122       H  0.58499988  0.83357722  0.70347720     0.12900
H3123       H  0.61123563  0.80622096  0.65958635     0.11600
H3124       H  0.59542679  0.78330875  0.66319800     0.12800
H3125       H  0.57562186  0.76873693  0.67760549     0.11900
H3126       H  0.56784155  0.82116268  0.71571681     0.09000
H3127       H  0.54944725  0.80554307  0.72990507     0.12200
H3128       H  0.55731718  0.76653298  0.69890974     0.14100
C3129       C  0.70087468  0.82841981  0.58142037    -0.01400
C3130       C  0.71610866  0.83315254  0.57755885    -0.09400
C3131       C  0.72421139  0.82608143  0.56526689    -0.18300
C3132       C  0.71726019  0.81400676  0.55627066     0.04100
C3133       C  0.70186596  0.80908938  0.56035850     0.18300
C3134       C  0.69388296  0.81625725  0.57284278    -0.19700
C3135       C  0.69448311  0.79711085  0.55190417    -0.21000
C3136       C  0.70207435  0.78985499  0.53945422    -0.19500
C3137       C  0.71720652  0.79445391  0.53509070     0.19700
C3138       C  0.72499893  0.80665881  0.54337932     0.01800
C3139       C  0.74016188  0.81103392  0.53832691    -0.14200
C3140       C  0.74729265  0.80355154  0.52569193    -0.12000
C3141       C  0.73967239  0.79140627  0.51767736     0.01400
C3142       C  0.72459920  0.78691805  0.52244853    -0.24100
H3143       H  0.72191162  0.84232680  0.58413480     0.09400
H3144       H  0.73589462  0.83037033  0.56313374     0.12900
H3145       H  0.68207200  0.81252655  0.57566516     0.11600
H3146       H  0.68274827  0.79330814  0.55495468     0.12800
H3147       H  0.69604801  0.78059282  0.53317116     0.11900
H3148       H  0.74684596  0.82023088  0.54382963     0.09000
H3149       H  0.75895064  0.80724814  0.52227549     0.12200
H3150       H  0.71855578  0.77758997  0.51626817     0.14100
C3151       C  0.71188784  0.70140464  0.89097281    -0.01400
C3152       C  0.72575283  0.69563630  0.89761912    -0.09400
C3153       C  0.73395683  0.70431415  0.90876458    -0.18300
C3154       C  0.72852715  0.71916543  0.91372826     0.04100
C3155       C  0.71461112  0.72511752  0.90678011     0.18300
C3156       C  0.70644752  0.71623220  0.89560519    -0.19700
C3157       C  0.70892290  0.73992766  0.91098747    -0.21000
C3158       C  0.71677725  0.74898995  0.92201041    -0.19500
C3159       C  0.73040504  0.74338036  0.92921614     0.19700
C3160       C  0.73642540  0.72833805  0.92526790     0.01800
C3161       C  0.75004135  0.72309585  0.93312084    -0.14200
C3162       C  0.75750348  0.73249622  0.94418036    -0.12000
C3163       C  0.75168299  0.74739567  0.94786068     0.01400
C3164       C  0.73805493  0.75273500  0.94038860    -0.24100
H3165       H  0.73034650  0.68428789  0.89432924     0.09400
H3166       H  0.74452853  0.69904248  0.91321235     0.12900
H3167       H  0.69587727  0.72102678  0.89048660     0.11600
H3168       H  0.69834339  0.74455816  0.90568215     0.12800
H3169       H  0.71211257  0.76043319  0.92497914     0.11900
H3170       H  0.75522517  0.71177231  0.93106203     0.09000
H3171       H  0.76793015  0.72801552  0.94988474     0.12200
H3172       H  0.73340629  0.76422777  0.94320746     0.14100
C3173       C  0.55656548  0.73635911  0.76470629    -0.01400
C3174       C  0.56140722  0.74199225  0.77933813    -0.09400
C3175       C  0.57318285  0.73440391  0.78775761    -0.18300
C3176       C  0.58059833  0.72084136  0.78176224     0.04100
C3177       C  0.57570739  0.71521528  0.76685888     0.18300
C3178       C  0.56378548  0.72293829  0.75854500    -0.19700
C3179       C  0.58275717  0.70192924  0.76031177    -0.21000
C3180       C  0.59465173  0.69410791  0.76822775    -0.19500
C3181       C  0.59972375  0.69933018  0.78292374     0.19700
C3182       C  0.59272363  0.71271628  0.78995545     0.01800
C3183       C  0.59817973  0.71737245  0.80488035    -0.14200
C3184       C  0.61019047  0.70922518  0.81237586    -0.12000
C3185       C  0.61724099  0.69616896  0.80532503     0.01400
C3186       C  0.61183199  0.69124858  0.79060022    -0.24100
H3187       H  0.55601886  0.75231943  0.78439161     0.09400
H3188       H  0.57621378  0.73951041  0.79889229     0.12900
H3189       H  0.56015578  0.71847847  0.74721196     0.11600
H3190       H  0.57908473  0.69758559  0.74895299     0.12800
H3191       H  0.59992279  0.68389518  0.76280964     0.11900
H3192       H  0.59342097  0.72724977  0.81113325     0.09000
H3193       H  0.61388339  0.71326540  0.82380231     0.12200
H3194       H  0.61710995  0.68120118  0.78493068     0.14100
C3195       C  0.75368035  0.55266424  0.75695718    -0.01400
C3196       C  0.76088591  0.55938033  0.77008078    -0.09400
C3197       C  0.75309047  0.57047648  0.77913776    -0.18300
C3198       C  0.73766759  0.57523661  0.77539425     0.04100
C3199       C  0.73035517  0.56835775  0.76208337     0.18300
C3200       C  0.73840582  0.55725335  0.75298358    -0.19700
C3201       C  0.71502647  0.57253665  0.75798870    -0.21000
C3202       C  0.70675539  0.58339783  0.76687420    -0.19500
C3203       C  0.71365440  0.59042455  0.78000257     0.19700
C3204       C  0.72923113  0.58650293  0.78441695     0.01800
C3205       C  0.73569077  0.59405703  0.79766688    -0.14200
C3206       C  0.72705654  0.60498733  0.80616525    -0.12000
C3207       C  0.71168392  0.60882963  0.80183695     0.01400
C3208       C  0.70505871  0.60141773  0.78872212    -0.24100
H3209       H  0.77268505  0.55606707  0.77341561     0.09400
H3210       H  0.75947840  0.57500478  0.78903354     0.12900
H3211       H  0.73269448  0.55207647  0.74287685     0.11600
H3212       H  0.70937024  0.56732567  0.74787452     0.12800
H3213       H  0.69488711  0.58635462  0.76342479     0.11900
H3214       H  0.74742774  0.59188722  0.80177098     0.09000
H3215       H  0.73263480  0.61050150  0.81611677     0.12200
H3216       H  0.69318192  0.60415849  0.78519423     0.14100
loop_ 
_geom_bond_atom_site_label_1 
_geom_bond_atom_site_label_2 
_geom_bond_distance 
_geom_bond_site_symmetry_2 
_ccdc_geom_bond_type 
N1            N2   1.321       .  A
N1            C5   1.343       .  A
N1           Cu9   2.066       .  S
N2            C3   1.342       .  A
N2           Cu8   2.068       .  S
C3            C4   1.388       .  A
C3            H6   1.081       .  S
C4            C5   1.387       .  A
C4         C3207   1.484       .  S
C5            H7   1.081       .  S
Cu8          N11   2.068       .  S
Cu9          N19   2.066       .  S
Cu10         N12   2.058       .  S
Cu10         N18   2.059       .  S
N11          N12   1.319       .  A
N11          C15   1.343       .  A
N12          C13   1.341       .  A
C13          C14   1.386       .  A
C13          H16   1.081       .  S
C14          C15   1.389       .  A
C14        C3151   1.483       .  S
C15          H17   1.081       .  S
N18          N19   1.320       .  A
N18          C22   1.341       .  A
N19          C20   1.343       .  A
C20          C21   1.388       .  A
C20          H23   1.081       .  S
C21          C22   1.386       .  A
C21        C3185   1.483       .  S
C22          H24   1.081       .  S
N25          N26   1.321       .  A
N25          C29   1.343       .  A
N25         Cu33   2.071       .  S
N26          C27   1.344       .  A
N26         Cu32   2.064       .  S
C27          C28   1.385       .  A
C27          H30   1.082       .  S
C28          C29   1.387       .  A
C28        C3085   1.481       .  S
C29          H31   1.081       .  S
Cu32         N35   2.064       .  S
Cu33         N43   2.071       .  S
Cu34         N36   2.069       .  S
Cu34         N42   2.069       .  S
N35          N36   1.320       .  A
N35          C39   1.342       .  A
N36          C37   1.343       .  A
C37          C38   1.388       .  A
C37          H40   1.081       .  S
C38          C39   1.387       .  A
C38        C3107   1.485       .  S
C39          H41   1.081       .  S
N42          N43   1.321       .  A
N42          C46   1.345       .  A
N43          C44   1.343       .  A
C44          C45   1.386       .  A
C44          H47   1.082       .  S
C45          C46   1.386       .  A
C45        C3129   1.481       .  S
C46          H48   1.082       .  S
N49          N50   1.321       .  A
N49          C53   1.345       .  A
N49         Cu57   2.077       .  S
N50          C51   1.343       .  A
N50         Cu56   2.066       .  S
C51          C52   1.387       .  A
C51          H54   1.081       .  S
C52          C53   1.390       .  A
C52        C3041   1.486       .  S
C53          H55   1.081       .  S
Cu56         N59   2.067       .  S
Cu57         N67   2.078       .  S
Cu58         N60   2.076       .  S
Cu58         N66   2.077       .  S
N59          N60   1.320       .  A
N59          C63   1.343       .  A
N60          C61   1.345       .  A
C61          C62   1.390       .  A
C61          H64   1.081       .  S
C62          C63   1.388       .  A
C62        C3075   1.487       .  S
C63          H65   1.081       .  S
N66          N67   1.321       .  A
N66          C70   1.345       .  A
N67          C68   1.345       .  A
C68          C69   1.390       .  A
C68          H71   1.081       .  S
C69          C70   1.389       .  A
C69        C3031   1.491       .  S
C70          H72   1.081       .  S
N73          N74   1.321       .  A
N73          C77   1.343       .  A
N73         Cu81   2.071       .  S
N74          C75   1.345       .  A
N74         Cu80   2.074       .  S
C75          C76   1.388       .  A
C75          H78   1.081       .  S
C76          C77   1.388       .  A
C76        C2987   1.486       .  S
C77          H79   1.081       .  S
Cu80         N83   2.074       .  S
Cu81         N91   2.071       .  S
Cu82         N84   2.076       .  S
Cu82         N90   2.076       .  S
N83          N84   1.321       .  A
N83          C87   1.344       .  A
N84          C85   1.344       .  A
C85          C86   1.390       .  A
C85          H88   1.081       .  S
C86          C87   1.390       .  A
C86        C2997   1.490       .  S
C87          H89   1.081       .  S
N90          N91   1.320       .  A
N90          C94   1.343       .  A
N91          C92   1.345       .  A
C92          C93   1.389       .  A
C92          H95   1.081       .  S
C93          C94   1.390       .  A
C93        C2953   1.489       .  S
C94          H96   1.081       .  S
O97        Cu105   2.007       .  S
O97         C107   1.278       .  A
O98        Cu105   2.003       .  S
O98         C108   1.278   1_556  A
O99        Cu105   1.996       .  S
O99         C109   1.277       .  A
O100       Cu105   1.994       .  S
O100        C110   1.277   1_556  A
O101       Cu106   2.002       .  S
O101        C110   1.278   1_556  A
O102       Cu106   2.005       .  S
O102        C109   1.278       .  A
O103       Cu106   2.009       .  S
O103        C108   1.279   1_556  A
O104       Cu106   2.008       .  S
O104        C107   1.278       .  A
Cu105      Cu106   2.372       .  S
C107       C3009   1.482       .  S
C108       C2943   1.480       .  S
C109       C3163   1.476       .  S
C110       C2909   1.475       .  S
O111       Cu119   2.018       .  S
O111        C121   1.279   1_455  A
O112       Cu119   2.016       .  S
O112        C122   1.280       .  A
O113       Cu119   2.006       .  S
O113        C123   1.278   1_455  A
O114       Cu119   2.010       .  S
O114        C124   1.278       .  A
O115       Cu120   2.019       .  S
O115        C124   1.280       .  A
O116       Cu120   2.019       .  S
O116        C123   1.280   1_455  A
O117       Cu120   1.999       .  S
O117        C122   1.277       .  A
O118       Cu120   1.999       .  S
O118        C121   1.277   1_455  A
Cu119      Cu120   2.369       .  S
C121       C2965   1.482       .  S
C122       C2899   1.481       .  S
C123       C3019   1.485       .  S
C124       C2865   1.486       .  S
O125       Cu133   2.011       .  S
O125        C135   1.279   1_545  A
O126       Cu133   2.014       .  S
O126        C136   1.278       .  A
O127       Cu133   1.991       .  S
O127        C137   1.276   1_545  A
O128       Cu133   1.996       .  S
O128        C138   1.277       .  A
O129       Cu134   2.020       .  S
O129        C138   1.280       .  A
O130       Cu134   2.022       .  S
O130        C137   1.280   1_545  A
O131       Cu134   1.998       .  S
O131        C136   1.278       .  A
O132       Cu134   1.999       .  S
O132        C135   1.276   1_545  A
Cu133      Cu134   2.371       .  S
C135       C3097   1.477       .  S
C136       C2821   1.480       .  S
C137       C2975   1.480       .  S
C138       C2855   1.482       .  S
N139        N140   1.319       .  A
N139        C143   1.340       .  A
N139       Cu147   2.055       .  S
N140        C141   1.346       .  A
N140       Cu146   2.080       .  S
C141        C142   1.392       .  A
C141        H144   1.081       .  S
C142        C143   1.386       .  A
C142       C2799   1.487       .  S
C143        H145   1.081       .  S
Cu146       N149   2.081       .  S
Cu147       N157   2.054       .  S
Cu148       N150   2.075       .  S
Cu148       N156   2.074       .  S
N149        N150   1.323       .  A
N149        C153   1.346       .  A
N150        C151   1.342       .  A
C151        C152   1.387       .  A
C151        H154   1.081       .  S
C152        C153   1.389       .  A
C152       C2789   1.487       .  S
C153        H155   1.081       .  S
N156        N157   1.319       .  A
N156        C160   1.346       .  A
N157        C158   1.340       .  A
C158        C159   1.386       .  A
C158        H161   1.081       .  S
C159        C160   1.392       .  A
C159       C2931   1.486       .  S
C160        H162   1.081       .  S
N163        N164   1.320       .  A
N163        C167   1.343       .  A
N163       Cu171   2.071       .  S
N164        C165   1.343       .  A
N164       Cu170   2.063       .  S
C165        C166   1.387       .  A
C165        H168   1.081       .  S
C166        C167   1.389       .  A
C166       C2767   1.484       .  S
C167        H169   1.081       .  S
Cu170       N173   2.063       .  S
Cu171       N181   2.072       .  S
Cu172       N174   2.074       .  S
Cu172       N180   2.074       .  S
N173        N174   1.321       .  A
N173        C177   1.341       .  A
N174        C175   1.346       .  A
C175        C176   1.388       .  A
C175        H178   1.081       .  S
C176        C177   1.385       .  A
C176       C2733   1.483       .  S
C177        H179   1.081       .  S
N180        N181   1.321       .  A
N180        C184   1.344       .  A
N181        C182   1.343       .  A
C182        C183   1.389       .  A
C182        H185   1.081       .  S
C183        C184   1.389       .  A
C183       C2843   1.488       .  S
C184        H186   1.081       .  S
N187        N188   1.321       .  A
N187        C191   1.344       .  A
N187       Cu195   2.076       .  S
N188        C189   1.342       .  A
N188       Cu194   2.061       .  S
C189        C190   1.385       .  A
C189        H192   1.081       .  S
C190        C191   1.389       .  A
C190       C2689   1.484       .  S
C191        H193   1.081       .  S
Cu194       N197   2.061       .  S
Cu195       N205   2.076       .  S
Cu196       N198   2.070       .  S
Cu196       N204   2.071       .  S
N197        N198   1.319       .  A
N197        C201   1.342       .  A
N198        C199   1.344       .  A
C199        C200   1.389       .  A
C199        H202   1.081       .  S
C200        C201   1.386       .  A
C200       C2723   1.484       .  S
C201        H203   1.081       .  S
N204        N205   1.321       .  A
N204        C208   1.342       .  A
N205        C206   1.346       .  A
C206        C207   1.390       .  A
C206        H209   1.081       .  S
C207        C208   1.388       .  A
C207       C2887   1.488       .  S
C208        H210   1.081       .  S
N211        N212   1.320       .  A
N211        C215   1.345       .  A
N211       Cu219   2.076       .  S
N212        C213   1.343       .  A
N212       Cu218   2.069       .  S
C213        C214   1.388       .  A
C213        H216   1.081       .  S
C214        C215   1.390       .  A
C214       C2645   1.488       .  S
C215        H217   1.081       .  S
Cu218       N221   2.069       .  S
Cu219       N229   2.077       .  S
Cu220       N222   2.071       .  S
Cu220       N228   2.071       .  S
N221        N222   1.320       .  A
N221        C225   1.341       .  A
N222        C223   1.346       .  A
C223        C224   1.389       .  A
C223        H226   1.081       .  S
C224        C225   1.388       .  A
C224       C2667   1.487       .  S
C225        H227   1.081       .  S
N228        N229   1.321       .  A
N228        C232   1.343       .  A
N229        C230   1.345       .  A
C230        C231   1.390       .  A
C230        H233   1.081       .  S
C231        C232   1.388       .  A
C231       C2623   1.488       .  S
C232        H234   1.081       .  S
O235       Cu243   2.013       .  S
O235        C245   1.279   1_455  A
O236       Cu243   2.010       .  S
O236        C246   1.278       .  A
O237       Cu243   1.998       .  S
O237        C247   1.277   1_455  A
O238       Cu243   2.001       .  S
O238        C248   1.277       .  A
O239       Cu244   2.010       .  S
O239        C248   1.279       .  A
O240       Cu244   2.015       .  S
O240        C247   1.279   1_455  A
O241       Cu244   1.999       .  S
O241        C246   1.277       .  A
O242       Cu244   1.999       .  S
O242        C245   1.277   1_455  A
Cu243      Cu244   2.371       .  S
C245       C2601   1.480       .  S
C246       C2569   1.479       .  S
C247       C2635   1.480       .  S
C248       C2579   1.480       .  S
N249        N250   1.320       .  A
N249        C253   1.343       .  A
N249       Cu257   2.062       .  S
N250        C251   1.345       .  A
N250       Cu256   2.073       .  S
C251        C252   1.388       .  A
C251        H254   1.081       .  S
C252        C253   1.386       .  A
C252       C2535   1.483       .  S
C253        H255   1.081       .  S
Cu256       N259   2.073       .  S
Cu257       N267   2.062       .  S
Cu258       N260   2.067       .  S
Cu258       N266   2.066       .  S
N259        N260   1.321       .  A
N259        C263   1.343       .  A
N260        C261   1.344       .  A
C261        C262   1.387       .  A
C261        H264   1.081       .  S
C262        C263   1.387       .  A
C262       C2613   1.484       .  S
C263        H265   1.081       .  S
N266        N267   1.320       .  A
N266        C270   1.343       .  A
N267        C268   1.341       .  A
C268        C269   1.386       .  A
C268        H271   1.081       .  S
C269        C270   1.388       .  A
C269       C2921   1.483       .  S
C270        H272   1.081       .  S
N273        N274   1.319       .  A
N273        C277   1.346       .  A
N273       Cu281   2.077       .  S
N274        C275   1.342       .  A
N274       Cu280   2.060       .  S
C275        C276   1.387       .  A
C275        H278   1.081       .  S
C276        C277   1.392       .  A
C276       C2481   1.488       .  S
C277        H279   1.081       .  S
Cu280       N283   2.060       .  S
Cu281       N291   2.078       .  S
Cu282       N284   2.083       .  S
Cu282       N290   2.083       .  S
N283        N284   1.321       .  A
N283        C287   1.342       .  A
N284        C285   1.347       .  A
C285        C286   1.391       .  A
C285        H288   1.081       .  S
C286        C287   1.385       .  A
C286       C2491   1.485       .  S
C287        H289   1.081       .  S
N290        N291   1.322       .  A
N290        C294   1.347       .  A
N291        C292   1.343       .  A
C292        C293   1.389       .  A
C292        H295   1.080       .  S
C293        C294   1.390       .  A
C293       C2525   1.491       .  S
C294        H296   1.081       .  S
O297       Cu305   2.011       .  S
O297        C307   1.279       .  A
O298       Cu305   2.013       .  S
O298        C308   1.279   1_545  A
O299       Cu305   2.005       .  S
O299        C309   1.278       .  A
O300       Cu305   2.003       .  S
O300        C310   1.278   1_545  A
O301       Cu306   2.010       .  S
O301        C310   1.278   1_545  A
O302       Cu306   2.012       .  S
O302        C309   1.279       .  A
O303       Cu306   2.003       .  S
O303        C308   1.277   1_545  A
O304       Cu306   2.001       .  S
O304        C307   1.278       .  A
Cu305      Cu306   2.371       .  S
C307       C2447   1.480       .  S
C308       C2547   1.479       .  S
C309       C2425   1.482       .  S
C310       C2469   1.481       .  S
N311        N312   1.322       .  A
N311        C315   1.346       .  A
N311       Cu319   2.081       .  S
N312        C313   1.344       .  A
N312       Cu318   2.078       .  S
C313        C314   1.388       .  A
C313        H316   1.081       .  S
C314        C315   1.389       .  A
C314       C2359   1.490       .  S
C315        H317   1.081       .  S
Cu318       N321   2.077       .  S
Cu319       N329   2.081       .  S
Cu320       N322   2.064       .  S
Cu320       N328   2.065       .  S
N321        N322   1.320       .  A
N321        C325   1.347       .  A
N322        C323   1.341       .  A
C323        C324   1.386       .  A
C323        H326   1.081       .  S
C324        C325   1.390       .  A
C324       C2403   1.484       .  S
C325        H327   1.081       .  S
N328        N329   1.320       .  A
N328        C332   1.344       .  A
N329        C330   1.345       .  A
C330        C331   1.392       .  A
C330        H333   1.081       .  S
C331        C332   1.388       .  A
C331       C2393   1.490       .  S
C332        H334   1.081       .  S
O335       Cu343   2.009       .  S
O335        C345   1.279       .  A
O336       Cu343   2.012       .  S
O336        C346   1.279       .  A
O337       Cu343   2.005       .  S
O337        C347   1.278   1_545  A
O338       Cu343   2.004       .  S
O338        C348   1.278       .  A
O339       Cu344   1.998       .  S
O339        C348   1.277       .  A
O340       Cu344   1.997       .  S
O340        C347   1.277   1_545  A
O341       Cu344   2.011       .  S
O341        C346   1.278       .  A
O342       Cu344   2.013       .  S
O342        C345   1.279       .  A
Cu343      Cu344   2.371       .  S
C345       C2371   1.483   1_545  S
C346       C2305   1.484       .  S
C347       C2337   1.476       .  S
C348       C2327   1.477       .  S
N349        N350   1.320       .  A
N349        C353   1.343       .  A
N349       Cu357   2.075       .  S
N350        C351   1.344       .  A
N350       Cu356   2.065       .  S
C351        C352   1.387       .  A
C351        H354   1.081       .  S
C352        C353   1.389       .  A
C352       C2271   1.486       .  S
C353        H355   1.081       .  S
Cu356       N359   2.065       .  S
Cu357       N367   2.076       .  S
Cu358       N360   2.072       .  S
Cu358       N366   2.072       .  S
N359        N360   1.320       .  A
N359        C363   1.342       .  A
N360        C361   1.343       .  A
C361        C362   1.389       .  A
C361        H364   1.081       .  S
C362        C363   1.387       .  A
C362       C2349   1.485       .  S
C363        H365   1.081       .  S
N366        N367   1.321       .  A
N366        C370   1.345       .  A
N367        C368   1.344       .  A
C368        C369   1.389       .  A
C368        H371   1.081       .  S
C369        C370   1.389       .  A
C369       C2877   1.488       .  S
C370        H372   1.081       .  S
N373        N374   1.321       .  A
N373        C377   1.340       .  A
N373       Cu381   2.065       .  S
N374        C375   1.346       .  A
N374       Cu380   2.071       .  S
C375        C376   1.388       .  A
C375        H378   1.081       .  S
C376        C377   1.386       .  A
C376       C2239   1.484       .  S
C377        H379   1.081       .  S
Cu380       N383   2.070       .  S
Cu381       N391   2.065       .  S
Cu382       N384   2.060       .  S
Cu382       N390   2.059       .  S
N383        N384   1.320       .  A
N383        C387   1.341       .  A
N384        C385   1.344       .  A
C385        C386   1.387       .  A
C385        H388   1.081       .  S
C386        C387   1.389       .  A
C386       C2205   1.485       .  S
C387        H389   1.080       .  S
N390        N391   1.320       .  A
N390        C394   1.339       .  A
N391        C392   1.346       .  A
C392        C393   1.388       .  A
C392        H395   1.081       .  S
C393        C394   1.385       .  A
C393       C2261   1.480       .  S
C394        H396   1.081       .  S
O397       Cu405   2.008       .  S
O397        C407   1.279   1_556  A
O398       Cu405   2.006       .  S
O398        C408   1.278       .  A
O399       Cu405   2.000       .  S
O399        C409   1.277   1_556  A
O400       Cu405   2.002       .  S
O400        C410   1.277       .  A
O401       Cu406   2.004       .  S
O401        C410   1.279       .  A
O402       Cu406   2.003       .  S
O402        C409   1.278   1_556  A
O403       Cu406   2.004       .  S
O403        C408   1.278       .  A
O404       Cu406   2.008       .  S
O404        C407   1.278   1_556  A
Cu405      Cu406   2.371       .  S
C407       C2183   1.481       .  S
C408       C2283   1.479       .  S
C409       C2173   1.476       .  S
C410       C2217   1.478       .  S
N411        N412   1.321       .  A
N411        C415   1.342       .  A
N411       Cu419   2.068       .  S
N412        C413   1.346       .  A
N412       Cu418   2.078       .  S
C413        C414   1.390       .  A
C413        H416   1.081       .  S
C414        C415   1.387       .  A
C414       C2095   1.487       .  S
C415        H417   1.081       .  S
Cu418       N421   2.078       .  S
Cu419       N429   2.067       .  S
Cu420       N422   2.062       .  S
Cu420       N428   2.061       .  S
N421        N422   1.321       .  A
N421        C425   1.344       .  A
N422        C423   1.343       .  A
C423        C424   1.386       .  A
C423        H426   1.081       .  S
C424        C425   1.390       .  A
C424       C2117   1.485       .  S
C425        H427   1.081       .  S
N428        N429   1.319       .  A
N428        C432   1.342       .  A
N429        C430   1.343       .  A
C430        C431   1.389       .  A
C430        H433   1.081       .  S
C431        C432   1.387       .  A
C431       C2139   1.484       .  S
C432        H434   1.081       .  S
O435       Cu443   2.013       .  S
O435        C445   1.279       .  A
O436       Cu443   2.014       .  S
O436        C446   1.279   1_455  A
O437       Cu443   2.003       .  S
O437        C447   1.277       .  A
O438       Cu443   1.998       .  S
O438        C448   1.277   1_455  A
O439       Cu444   2.008       .  S
O439        C448   1.278   1_455  A
O440       Cu444   2.006       .  S
O440        C447   1.279       .  A
O441       Cu444   2.004       .  S
O441        C446   1.278   1_455  A
O442       Cu444   2.006       .  S
O442        C445   1.278       .  A
Cu443      Cu444   2.371       .  S
C445       C2029   1.482       .  S
C446       C2107   1.482       .  S
C447       C2051   1.480       .  S
C448       C2073   1.478       .  S
N449        N450   1.320       .  A
N449        C453   1.344       .  A
N449       Cu457   2.071       .  S
N450        C451   1.341       .  A
N450       Cu456   2.061       .  S
C451        C452   1.386       .  A
C451        H454   1.081       .  S
C452        C453   1.390       .  A
C452       C2085   1.485       .  S
C453        H455   1.081       .  S
Cu456       N459   2.061       .  S
Cu457       N467   2.072       .  S
Cu458       N460   2.071       .  S
Cu458       N466   2.071       .  S
N459        N460   1.319       .  A
N459        C463   1.341       .  A
N460        C461   1.345       .  A
C461        C462   1.390       .  A
C461        H464   1.081       .  S
C462        C463   1.387       .  A
C462       C2007   1.486       .  S
C463        H465   1.081       .  S
N466        N467   1.321       .  A
N466        C470   1.341       .  A
N467        C468   1.346       .  A
C468        C469   1.388       .  A
C468        H471   1.081       .  S
C469        C470   1.387       .  A
C469       C2833   1.485       .  S
C470        H472   1.081       .  S
N473        N474   1.320       .  A
N473        C477   1.344       .  A
N473       Cu481   2.067       .  S
N474        C475   1.342       .  A
N474       Cu480   2.063       .  S
C475        C476   1.387       .  A
C475        H478   1.081       .  S
C476        C477   1.388       .  A
C476       C1985   1.483       .  S
C477        H479   1.081       .  S
Cu480       N483   2.064       .  S
Cu481       N491   2.068       .  S
Cu482       N484   2.078       .  S
Cu482       N490   2.079       .  S
N483        N484   1.320       .  A
N483        C487   1.342       .  A
N484        C485   1.346       .  A
C485        C486   1.390       .  A
C485        H488   1.081       .  S
C486        C487   1.387       .  A
C486       C1953   1.487       .  S
C487        H489   1.081       .  S
N490        N491   1.322       .  A
N490        C494   1.344       .  A
N491        C492   1.343       .  A
C492        C493   1.387       .  A
C492        H495   1.081       .  S
C493        C494   1.389       .  A
C493       C1963   1.486       .  S
C494        H496   1.081       .  S
O497       Cu505   2.011       .  S
O497        C507   1.278       .  A
O498       Cu505   2.010       .  S
O498        C508   1.279   1_556  A
O499       Cu505   2.005       .  S
O499        C509   1.278       .  A
O500       Cu505   2.005       .  S
O500        C510   1.278   1_556  A
O501       Cu506   2.015       .  S
O501        C510   1.279   1_556  A
O502       Cu506   2.013       .  S
O502        C509   1.279       .  A
O503       Cu506   2.007       .  S
O503        C508   1.278   1_556  A
O504       Cu506   2.003       .  S
O504        C507   1.278       .  A
Cu505      Cu506   2.370       .  S
C507       C2019   1.481       .  S
C508       C1919   1.482       .  S
C509       C1941   1.480       .  S
C510       C1897   1.483       .  S
N511        N512   1.322       .  A
N511        C515   1.342       .  A
N511       Cu519   2.070       .  S
N512        C513   1.344       .  A
N512       Cu518   2.073       .  S
C513        C514   1.388       .  A
C513        H516   1.081       .  S
C514        C515   1.387       .  A
C514       C1853   1.484       .  S
C515        H517   1.081       .  S
Cu518       N521   2.074       .  S
Cu519       N529   2.070       .  S
Cu520       N522   2.069       .  S
Cu520       N528   2.069       .  S
N521        N522   1.320       .  A
N521        C525   1.345       .  A
N522        C523   1.342       .  A
C523        C524   1.388       .  A
C523        H526   1.081       .  S
C524        C525   1.390       .  A
C524       C1875   1.488       .  S
C525        H527   1.081       .  S
N528        N529   1.319       .  A
N528        C532   1.343       .  A
N529        C530   1.345       .  A
C530        C531   1.390       .  A
C530        H533   1.081       .  S
C531        C532   1.389       .  A
C531       C1931   1.488       .  S
C532        H534   1.081       .  S
N535        N536   1.320       .  A
N535        C539   1.342       .  A
N535       Cu543   2.069       .  S
N536        C537   1.344       .  A
N536       Cu542   2.068       .  S
C537        C538   1.388       .  A
C537        H540   1.081       .  S
C538        C539   1.388       .  A
C538       C1809   1.485       .  S
C539        H541   1.081       .  S
Cu542       N545   2.068       .  S
Cu543       N553   2.069       .  S
Cu544       N546   2.071       .  S
Cu544       N552   2.071       .  S
N545        N546   1.320       .  A
N545        C549   1.343       .  A
N546        C547   1.344       .  A
C547        C548   1.388       .  A
C547        H550   1.081       .  S
C548        C549   1.388       .  A
C548       C1831   1.485       .  S
C549        H551   1.081       .  S
N552        N553   1.320       .  A
N552        C556   1.342       .  A
N553        C554   1.345       .  A
C554        C555   1.389       .  A
C554        H557   1.081       .  S
C555        C556   1.389       .  A
C555       C2195   1.488       .  S
C556        H558   1.081       .  S
N559        N560   1.320       .  A
N559        C563   1.342       .  A
N559       Cu567   2.066       .  S
N560        C561   1.344       .  A
N560       Cu566   2.071       .  S
C561        C562   1.389       .  A
C561        H564   1.081       .  S
C562        C563   1.388       .  A
C562       C2459   1.486       .  S
C563        H565   1.081       .  S
Cu566       N569   2.070       .  S
Cu567       N577   2.066       .  S
Cu568       N570   2.068       .  S
Cu568       N576   2.068       .  S
N569        N570   1.320       .  A
N569        C573   1.343       .  A
N570        C571   1.344       .  A
C571        C572   1.388       .  A
C571        H574   1.081       .  S
C572        C573   1.388       .  A
C572       C1765   1.485       .  S
C573        H575   1.081       .  S
N576        N577   1.320       .  A
N576        C580   1.342       .  A
N577        C578   1.344       .  A
C578        C579   1.387       .  A
C578        H581   1.081       .  S
C579        C580   1.387       .  A
C579       C1787   1.483       .  S
C580        H582   1.081       .  S
N583        N584   1.319       .  A
N583        C587   1.342       .  A
N583       Cu591   2.059       .  S
N584        C585   1.343       .  A
N584       Cu590   2.069       .  S
C585        C586   1.389       .  A
C585        H588   1.081       .  S
C586        C587   1.387       .  A
C586       C1699   1.484       .  S
C587        H589   1.081       .  S
Cu590       N593   2.069       .  S
Cu591       N601   2.058       .  S
Cu592       N594   2.070       .  S
Cu592       N600   2.070       .  S
N593        N594   1.321       .  A
N593        C597   1.345       .  A
N594        C595   1.341       .  A
C595        C596   1.387       .  A
C595        H598   1.081       .  S
C596        C597   1.387       .  A
C596       C1721   1.484       .  S
C597        H599   1.081       .  S
N600        N601   1.319       .  A
N600        C604   1.345       .  A
N601        C602   1.340       .  A
C602        C603   1.386       .  A
C602        H605   1.081       .  S
C603        C604   1.389       .  A
C603       C1743   1.483       .  S
C604        H606   1.081       .  S
N607        N608   1.321       .  A
N607        C611   1.341       .  A
N607       Cu615   2.062       .  S
N608        C609   1.344       .  A
N608       Cu614   2.074       .  S
C609        C610   1.389       .  A
C609        H612   1.081       .  S
C610        C611   1.386       .  A
C610       C1677   1.483       .  S
C611        H613   1.081       .  S
Cu614       N617   2.073       .  S
Cu615       N625   2.062       .  S
Cu616       N618   2.062       .  S
Cu616       N624   2.062       .  S
N617        N618   1.320       .  A
N617        C621   1.345       .  A
N618        C619   1.341       .  A
C619        C620   1.386       .  A
C619        H622   1.081       .  S
C620        C621   1.389       .  A
C620       C2591   1.485       .  S
C621        H623   1.081       .  S
N624        N625   1.319       .  A
N624        C628   1.342       .  A
N625        C626   1.344       .  A
C626        C627   1.387       .  A
C626        H629   1.081       .  S
C627        C628   1.386       .  A
C627       C2161   1.480       .  S
C628        H630   1.081       .  S
N631        N632   1.319       .  A
N631        C635   1.343       .  A
N631       Cu639   2.068       .  S
N632        C633   1.343       .  A
N632       Cu638   2.063       .  S
C633        C634   1.388       .  A
C633        H636   1.081       .  S
C634        C635   1.389       .  A
C634       C1611   1.486       .  S
C635        H637   1.081       .  S
Cu638       N641   2.064       .  S
Cu639       N649   2.068       .  S
Cu640       N642   2.070       .  S
Cu640       N648   2.070       .  S
N641        N642   1.321       .  A
N641        C645   1.342       .  A
N642        C643   1.344       .  A
C643        C644   1.388       .  A
C643        H646   1.081       .  S
C644        C645   1.386       .  A
C644       C1633   1.482       .  S
C645        H647   1.081       .  S
N648        N649   1.321       .  A
N648        C652   1.344       .  A
N649        C650   1.342       .  A
C650        C651   1.388       .  A
C650        H653   1.081       .  S
C651        C652   1.388       .  A
C651       C1655   1.485       .  S
C652        H654   1.081       .  S
O655       Cu663   2.002       .  S
O655        C665   1.278   1_545  A
O656       Cu663   2.004       .  S
O656        C666   1.278       .  A
O657       Cu663   1.997       .  S
O657        C667   1.277   1_545  A
O658       Cu663   1.998       .  S
O658        C668   1.277       .  A
O659       Cu664   2.004       .  S
O659        C668   1.278       .  A
O660       Cu664   2.003       .  S
O660        C667   1.278   1_545  A
O661       Cu664   2.009       .  S
O661        C666   1.278       .  A
O662       Cu664   2.008       .  S
O662        C665   1.278   1_545  A
Cu663      Cu664   2.372       .  S
C665       C1623   1.479       .  S
C666       C1601   1.481       .  S
C667       C1689   1.476       .  S
C668       C1711   1.477       .  S
N669        N670   1.321       .  A
N669        C673   1.341       .  A
N669       Cu677   2.066       .  S
N670        C671   1.345       .  A
N670       Cu676   2.070       .  S
C671        C672   1.387       .  A
C671        H674   1.081       .  S
C672        C673   1.386       .  A
C672       C2315   1.482       .  S
C673        H675   1.081       .  S
Cu676       N679   2.071       .  S
Cu677       N687   2.066       .  S
Cu678       N680   2.067       .  S
Cu678       N686   2.067       .  S
N679        N680   1.321       .  A
N679        C683   1.343       .  A
N680        C681   1.344       .  A
C681        C682   1.387       .  A
C681        H684   1.081       .  S
C682        C683   1.388       .  A
C682       C1567   1.484       .  S
C683        H685   1.081       .  S
N686        N687   1.320       .  A
N686        C690   1.343       .  A
N687        C688   1.343       .  A
C688        C689   1.388       .  A
C688        H691   1.081       .  S
C689        C690   1.388       .  A
C689       C1545   1.485       .  S
C690        H692   1.081       .  S
N693        N694   1.320       .  A
N693        C697   1.346       .  A
N693       Cu701   2.079       .  S
N694        C695   1.341       .  A
N694       Cu700   2.057       .  S
C695        C696   1.386       .  A
C695        H698   1.081       .  S
C696        C697   1.391       .  A
C696       C1523   1.487       .  S
C697        H699   1.081       .  S
Cu700       N703   2.057       .  S
Cu701       N711   2.079       .  S
Cu702       N704   2.068       .  S
Cu702       N710   2.069       .  S
N703        N704   1.319       .  A
N703        C707   1.342       .  A
N704        C705   1.342       .  A
C705        C706   1.389       .  A
C705        H708   1.081       .  S
C706        C707   1.387       .  A
C706       C1501   1.484       .  S
C707        H709   1.081       .  S
N710        N711   1.321       .  A
N710        C714   1.344       .  A
N711        C712   1.344       .  A
C712        C713   1.389       .  A
C712        H715   1.081       .  S
C713        C714   1.387       .  A
C713       C2063   1.486       .  S
C714        H716   1.081       .  S
N717        N718   1.321       .  A
N717        C721   1.341       .  A
N717       Cu725   2.068       .  S
N718        C719   1.347       .  A
N718       Cu724   2.080       .  S
C719        C720   1.391       .  A
C719        H722   1.081       .  S
C720        C721   1.387       .  A
C720       C1491   1.489       .  S
C721        H723   1.080       .  S
Cu724       N727   2.081       .  S
Cu725       N735   2.068       .  S
Cu726       N728   2.072       .  S
Cu726       N734   2.071       .  S
N727        N728   1.322       .  A
N727        C731   1.345       .  A
N728        C729   1.344       .  A
C729        C730   1.387       .  A
C729        H732   1.081       .  S
C730        C731   1.389       .  A
C730       C1457   1.488       .  S
C731        H733   1.081       .  S
N734        N735   1.319       .  A
N734        C738   1.343       .  A
N735        C736   1.344       .  A
C736        C737   1.389       .  A
C736        H739   1.081       .  S
C737        C738   1.389       .  A
C737       C1435   1.488       .  S
C738        H740   1.081       .  S
N741        N742   1.321       .  A
N741        C745   1.345       .  A
N741       Cu749   2.080       .  S
N742        C743   1.343       .  A
N742       Cu748   2.068       .  S
C743        C744   1.387       .  A
C743        H746   1.081       .  S
C744        C745   1.390       .  A
C744       C2437   1.488       .  S
C745        H747   1.081       .  S
Cu748       N751   2.068       .  S
Cu749       N759   2.080       .  S
Cu750       N752   2.073       .  S
Cu750       N758   2.073       .  S
N751        N752   1.321       .  A
N751        C755   1.344       .  A
N752        C753   1.345       .  A
C753        C754   1.387       .  A
C753        H756   1.082       .  S
C754        C755   1.386       .  A
C754       C1413   1.483       .  S
C755        H757   1.081       .  S
N758        N759   1.321       .  A
N758        C762   1.344       .  A
N759        C760   1.345       .  A
C760        C761   1.390       .  A
C760        H763   1.081       .  S
C761        C762   1.388       .  A
C761       C1909   1.490       .  S
C762        H764   1.081       .  S
N765        N766   1.321       .  A
N765        C769   1.345       .  A
N765       Cu773   2.074       .  S
N766        C767   1.343       .  A
N766       Cu772   2.070       .  S
C767        C768   1.387       .  A
C767        H770   1.081       .  S
C768        C769   1.388       .  A
C768       C1369   1.486       .  S
C769        H771   1.081       .  S
Cu772       N775   2.070       .  S
Cu773       N783   2.073       .  S
Cu774       N776   2.067       .  S
Cu774       N782   2.067       .  S
N775        N776   1.320       .  A
N775        C779   1.345       .  A
N776        C777   1.342       .  A
C777        C778   1.387       .  A
C777        H780   1.081       .  S
C778        C779   1.388       .  A
C778       C1391   1.484       .  S
C779        H781   1.081       .  S
N782        N783   1.320       .  A
N782        C786   1.344       .  A
N783        C784   1.344       .  A
C784        C785   1.389       .  A
C784        H787   1.081       .  S
C785        C786   1.388       .  A
C785       C1347   1.487       .  S
C786        H788   1.081       .  S
O789       Cu797   2.012       .  S
O789        C799   1.279   1_455  A
O790       Cu797   2.008       .  S
O790        C800   1.278       .  A
O791       Cu797   2.006       .  S
O791        C801   1.278       .  A
O792       Cu797   2.006       .  S
O792        C802   1.278       .  A
O793       Cu798   2.011       .  S
O793        C802   1.279       .  A
O794       Cu798   2.011       .  S
O794        C801   1.279       .  A
O795       Cu798   2.004       .  S
O795        C800   1.278       .  A
O796       Cu798   2.003       .  S
O796        C799   1.277   1_455  A
Cu797      Cu798   2.371       .  S
C799       C1359   1.480       .  S
C800       C1325   1.480       .  S
C801       C1425   1.480   1_455  S
C802       C1447   1.482       .  S
N803        N804   1.321       .  A
N803        C807   1.342       .  A
N803       Cu811   2.066       .  S
N804        C805   1.345       .  A
N804       Cu810   2.078       .  S
C805        C806   1.390       .  A
C805        H808   1.081       .  S
C806        C807   1.387       .  A
C806       C1293   1.487       .  S
C807        H809   1.081       .  S
Cu810       N813   2.079       .  S
Cu811       N821   2.065       .  S
Cu812       N814   2.071       .  S
Cu812       N820   2.070       .  S
N813        N814   1.321       .  A
N813        C817   1.346       .  A
N814        C815   1.343       .  A
C815        C816   1.388       .  A
C815        H818   1.081       .  S
C816        C817   1.390       .  A
C816       C1303   1.488       .  S
C817        H819   1.081       .  S
N820        N821   1.320       .  A
N820        C824   1.343       .  A
N821        C822   1.344       .  A
C822        C823   1.388       .  A
C822        H825   1.081       .  S
C823        C824   1.389       .  A
C823       C2557   1.486       .  S
C824        H826   1.081       .  S
N827        N828   1.319       .  A
N827        C831   1.341       .  A
N827       Cu835   2.065       .  S
N828        C829   1.345       .  A
N828       Cu834   2.068       .  S
C829        C830   1.390       .  A
C829        H832   1.081       .  S
C830        C831   1.388       .  A
C830       C1337   1.487       .  S
C831        H833   1.081       .  S
Cu834       N837   2.069       .  S
Cu835       N845   2.066       .  S
Cu836       N838   2.072       .  S
Cu836       N844   2.072       .  S
N837        N838   1.322       .  A
N837        C841   1.342       .  A
N838        C839   1.344       .  A
C839        C840   1.388       .  A
C839        H842   1.081       .  S
C840        C841   1.387       .  A
C840       C1259   1.484       .  S
C841        H843   1.081       .  S
N844        N845   1.320       .  A
N844        C848   1.345       .  A
N845        C846   1.342       .  A
C846        C847   1.387       .  A
C846        H849   1.081       .  S
C847        C848   1.389       .  A
C847       C1589   1.486       .  S
C848        H850   1.081       .  S
N851        N852   1.320       .  A
N851        C855   1.342       .  A
N851       Cu859   2.065       .  S
N852        C853   1.345       .  A
N852       Cu858   2.077       .  S
C853        C854   1.390       .  A
C853        H856   1.081       .  S
C854        C855   1.387       .  A
C854       C1215   1.487       .  S
C855        H857   1.081       .  S
Cu858       N861   2.076       .  S
Cu859       N869   2.064       .  S
Cu860       N862   2.065       .  S
Cu860       N868   2.064       .  S
N861        N862   1.321       .  A
N861        C865   1.345       .  A
N862        C863   1.342       .  A
C863        C864   1.387       .  A
C863        H866   1.081       .  S
C864        C865   1.389       .  A
C864       C1237   1.486       .  S
C865        H867   1.081       .  S
N868        N869   1.319       .  A
N868        C872   1.342       .  A
N869        C870   1.343       .  A
C870        C871   1.388       .  A
C870        H873   1.081       .  S
C871        C872   1.388       .  A
C871       C1205   1.484       .  S
C872        H874   1.081       .  S
N875        N876   1.322       .  A
N875        C879   1.348       .  A
N875       Cu883   2.088       .  S
N876        C877   1.342       .  A
N876       Cu882   2.068       .  S
C877        C878   1.387       .  A
C877        H880   1.080       .  S
C878        C879   1.392       .  A
C878       C2293   1.491       .  S
C879        H881   1.081       .  S
Cu882       N885   2.067       .  S
Cu883       N893   2.088       .  S
Cu884       N886   2.063       .  S
Cu884       N892   2.064       .  S
N885        N886   1.319       .  A
N885        C889   1.344       .  A
N886        C887   1.343       .  A
C887        C888   1.386       .  A
C887        H890   1.081       .  S
C888        C889   1.387       .  A
C888       C1183   1.481       .  S
C889        H891   1.082       .  S
N892        N893   1.321       .  A
N892        C896   1.341       .  A
N893        C894   1.348       .  A
C894        C895   1.391       .  A
C894        H897   1.081       .  S
C895        C896   1.385       .  A
C895       C2041   1.488       .  S
C896        H898   1.081       .  S
N899        N900   1.321       .  A
N899        C903   1.344       .  A
N899       Cu907   2.070       .  S
N900        C901   1.341       .  A
N900       Cu906   2.065       .  S
C901        C902   1.386       .  A
C901        H904   1.081       .  S
C902        C903   1.388       .  A
C902       C1117   1.483       .  S
C903        H905   1.081       .  S
Cu906       N909   2.065       .  S
Cu907       N917   2.071       .  S
Cu908       N910   2.065       .  S
Cu908       N916   2.066       .  S
N909        N910   1.319       .  A
N909        C913   1.344       .  A
N910        C911   1.341       .  A
C911        C912   1.388       .  A
C911        H914   1.081       .  S
C912        C913   1.389       .  A
C912       C1149   1.485       .  S
C913        H915   1.081       .  S
N916        N917   1.320       .  A
N916        C920   1.343       .  A
N917        C918   1.344       .  A
C918        C919   1.388       .  A
C918        H921   1.081       .  S
C919        C920   1.387       .  A
C919       C1127   1.484       .  S
C920        H922   1.081       .  S
O923       Cu931   2.007       .  S
O923        C933   1.278   1_556  A
O924       Cu931   2.009       .  S
O924        C934   1.278       .  A
O925       Cu931   1.999       .  S
O925        C935   1.277       .  A
O926       Cu931   2.003       .  S
O926        C936   1.278       .  A
O927       Cu932   2.005       .  S
O927        C936   1.278       .  A
O928       Cu932   2.006       .  S
O928        C935   1.278       .  A
O929       Cu932   1.991       .  S
O929        C934   1.277       .  A
O930       Cu932   1.994       .  S
O930        C933   1.277   1_556  A
Cu931      Cu932   2.372       .  S
C933       C1271   1.476       .  S
C934       C1105   1.476       .  S
C935       C1193   1.477   1_556  S
C936       C1171   1.476       .  S
O937       Cu945   2.009       .  S
O937        C947   1.279       .  A
O938       Cu945   2.011       .  S
O938        C948   1.279       .  A
O939       Cu945   2.005       .  S
O939        C949   1.278       .  A
O940       Cu945   2.010       .  S
O940        C950   1.278       .  A
O941       Cu946   2.006       .  S
O941        C950   1.278       .  A
O942       Cu946   2.007       .  S
O942        C949   1.278       .  A
O943       Cu946   2.005       .  S
O943        C948   1.278       .  A
O944       Cu946   2.000       .  S
O944        C947   1.277       .  A
Cu945      Cu946   2.371       .  S
C947       C1281   1.479       .  S
C948       C1227   1.481       .  S
C949       C1821   1.480       .  S
C950       C1479   1.482       .  S
O951       Cu959   2.002       .  S
O951        C961   1.278       .  A
O952       Cu959   2.004       .  S
O952        C962   1.278       .  A
O953       Cu959   1.999       .  S
O953        C963   1.277       .  A
O954       Cu959   1.996       .  S
O954        C964   1.277       .  A
O955       Cu960   2.009       .  S
O955        C964   1.278       .  A
O956       Cu960   2.006       .  S
O956        C963   1.279       .  A
O957       Cu960   2.007       .  S
O957        C962   1.278       .  A
O958       Cu960   2.007       .  S
O958        C961   1.278       .  A
Cu959      Cu960   2.371       .  S
C961       C1249   1.480       .  S
C962       C1777   1.479       .  S
C963       C1733   1.478       .  S
C964       C1865   1.478       .  S
O965       Cu973   1.998       .  S
O965        C975   1.278       .  A
O966       Cu973   1.999       .  S
O966        C976   1.277       .  A
O967       Cu973   2.004       .  S
O967        C977   1.278       .  A
O968       Cu973   2.005       .  S
O968        C978   1.278       .  A
O969       Cu974   2.012       .  S
O969        C978   1.279       .  A
O970       Cu974   2.010       .  S
O970        C977   1.279       .  A
O971       Cu974   2.006       .  S
O971        C976   1.278       .  A
O972       Cu974   2.006       .  S
O972        C975   1.278       .  A
Cu973      Cu974   2.371       .  S
C975       C1513   1.477       .  S
C976       C1755   1.477       .  S
C977       C1557   1.481       .  S
C978       C1469   1.481       .  S
O979       Cu987   2.020       .  S
O979        C989   1.280       .  A
O980       Cu987   2.016       .  S
O980        C990   1.279       .  A
O981       Cu987   2.013       .  S
O981        C991   1.278       .  A
O982       Cu987   2.010       .  S
O982        C992   1.278       .  A
O983       Cu988   2.013       .  S
O983        C992   1.279       .  A
O984       Cu988   2.012       .  S
O984        C991   1.279       .  A
O985       Cu988   1.989       .  S
O985        C990   1.276       .  A
O986       Cu988   1.989       .  S
O986        C989   1.276       .  A
Cu987      Cu988   2.370       .  S
C989       C2711   1.479       .  S
C990       C1667   1.478       .  S
C991       C2381   1.484       .  S
C992       C1315   1.483       .  S
O993      Cu1001   2.013       .  S
O993       C1003   1.279       .  A
O994      Cu1001   2.010       .  S
O994       C1004   1.279       .  A
O995      Cu1001   2.004       .  S
O995       C1005   1.278       .  A
O996      Cu1001   2.006       .  S
O996       C1006   1.278       .  A
O997      Cu1002   2.001       .  S
O997       C1006   1.278       .  A
O998      Cu1002   2.003       .  S
O998       C1005   1.278       .  A
O999      Cu1002   2.001       .  S
O999       C1004   1.277       .  A
O1000     Cu1002   1.996       .  S
O1000      C1003   1.277       .  A
Cu1001    Cu1002   2.371       .  S
C1003      C2129   1.479       .  S
C1004      C1799   1.479       .  S
C1005      C2755   1.479       .  S
C1006      C1403   1.478       .  S
O1007     Cu1015   2.011       .  S
O1007      C1017   1.279       .  A
O1008     Cu1015   2.012       .  S
O1008      C1018   1.279       .  A
O1009     Cu1015   2.007       .  S
O1009      C1019   1.278       .  A
O1010     Cu1015   2.007       .  S
O1010      C1020   1.278       .  A
O1011     Cu1016   2.002       .  S
O1011      C1020   1.278       .  A
O1012     Cu1016   2.004       .  S
O1012      C1019   1.278       .  A
O1013     Cu1016   1.997       .  S
O1013      C1018   1.277       .  A
O1014     Cu1016   1.997       .  S
O1014      C1017   1.276       .  A
Cu1015    Cu1016   2.371       .  S
C1017      C2227   1.479       .  S
C1018      C1535   1.479       .  S
C1019      C2701   1.478       .  S
C1020      C1161   1.479       .  S
O1021     Cu1029   2.020       .  S
O1021      C1031   1.280       .  A
O1022     Cu1029   2.020       .  S
O1022      C1032   1.280       .  A
O1023     Cu1029   2.000       .  S
O1023      C1033   1.277       .  A
O1024     Cu1029   2.004       .  S
O1024      C1034   1.278       .  A
O1025     Cu1030   2.016       .  S
O1025      C1034   1.279       .  A
O1026     Cu1030   2.016       .  S
O1026      C1033   1.280       .  A
O1027     Cu1030   1.998       .  S
O1027      C1032   1.277       .  A
O1028     Cu1030   1.997       .  S
O1028      C1031   1.277       .  A
Cu1029    Cu1030   2.370       .  S
C1031      C1887   1.482       .  S
C1032      C2657   1.481       .  S
C1033      C1381   1.481       .  S
C1034      C2777   1.483       .  S
O1035     Cu1043   2.004       .  S
O1035      C1045   1.278       .  A
O1036     Cu1043   2.006       .  S
O1036      C1046   1.278       .  A
O1037     Cu1043   2.009       .  S
O1037      C1047   1.278       .  A
O1038     Cu1043   2.011       .  S
O1038      C1048   1.278       .  A
O1039     Cu1044   2.001       .  S
O1039      C1048   1.278       .  A
O1040     Cu1044   2.007       .  S
O1040      C1047   1.278       .  A
O1041     Cu1044   2.010       .  S
O1041      C1046   1.279       .  A
O1042     Cu1044   2.008       .  S
O1042      C1045   1.278       .  A
Cu1043    Cu1044   2.371       .  S
C1045      C2745   1.478       .  S
C1046      C1139   1.481       .  S
C1047      C1975   1.481       .  S
C1048      C1579   1.480       .  S
O1049     Cu1057   1.996       .  S
O1049      C1059   1.277       .  A
O1050     Cu1057   1.993       .  S
O1050      C1060   1.276       .  A
O1051     Cu1057   2.009       .  S
O1051      C1061   1.279       .  A
O1052     Cu1057   2.010       .  S
O1052      C1062   1.279       .  A
O1053     Cu1058   2.002       .  S
O1053      C1062   1.277       .  A
O1054     Cu1058   2.002       .  S
O1054      C1061   1.277       .  A
O1055     Cu1058   2.018       .  S
O1055      C1060   1.280       .  A
O1056     Cu1058   2.020       .  S
O1056      C1059   1.280       .  A
Cu1057    Cu1058   2.371       .  S
C1059      C2503   1.480       .  S
C1060      C1843   1.479       .  S
C1061      C2811   1.479       .  S
C1062      C1645   1.480       .  S
O1063     Cu1071   2.012       .  S
O1063      C1073   1.280       .  A
O1064     Cu1071   2.013       .  S
O1064      C1074   1.279       .  A
O1065     Cu1071   2.009       .  S
O1065      C1075   1.278       .  A
O1066     Cu1071   2.007       .  S
O1066      C1076   1.278       .  A
O1067     Cu1072   2.010       .  S
O1067      C1076   1.279       .  A
O1068     Cu1072   2.013       .  S
O1068      C1075   1.280       .  A
O1069     Cu1072   1.999       .  S
O1069      C1074   1.277       .  A
O1070     Cu1072   2.005       .  S
O1070      C1073   1.277       .  A
Cu1071    Cu1072   2.370       .  S
C1073      C2679   1.482       .  S
C1074      C3141   1.479       .  S
C1075      C2513   1.484       .  S
C1076      C3063   1.482       .  S
O1077     Cu1085   1.996       .  S
O1077      C1087   1.277       .  A
O1078     Cu1085   1.994       .  S
O1078      C1088   1.277       .  A
O1079     Cu1085   1.997       .  S
O1079      C1089   1.277       .  A
O1080     Cu1085   1.998       .  S
O1080      C1090   1.277       .  A
O1081     Cu1086   2.014       .  S
O1081      C1090   1.279       .  A
O1082     Cu1086   2.012       .  S
O1082      C1089   1.279       .  A
O1083     Cu1086   2.008       .  S
O1083      C1088   1.278       .  A
O1084     Cu1086   2.010       .  S
O1084      C1087   1.279       .  A
Cu1085    Cu1086   2.372       .  S
C1087      C2151   1.478       .  S
C1088      C3195   1.477       .  S
C1089      C1997   1.478       .  S
C1090      C3053   1.480       .  S
O1091     Cu1099   1.992       .  S
O1091      C1101   1.277       .  A
O1092     Cu1099   1.997       .  S
O1092      C1102   1.277       .  A
O1093     Cu1099   2.005       .  S
O1093      C1103   1.278       .  A
O1094     Cu1099   2.006       .  S
O1094      C1104   1.278       .  A
O1095     Cu1100   2.004       .  S
O1095      C1104   1.278       .  A
O1096     Cu1100   2.003       .  S
O1096      C1103   1.278       .  A
O1097     Cu1100   2.006       .  S
O1097      C1102   1.278       .  A
O1098     Cu1100   2.007       .  S
O1098      C1101   1.278       .  A
Cu1099    Cu1100   2.372       .  S
C1101      C2249   1.476       .  S
C1102      C3119   1.477       .  S
C1103      C2415   1.479       .  S
C1104      C3173   1.479       .  S
C1105      C1106   1.400       .  A
C1105      C1110   1.402       .  A
C1106      C1107   1.391       .  A
C1106      H1119   1.083       .  S
C1107      C1108   1.413       .  A
C1107      H1120   1.077       .  S
C1108      C1114   1.426       .  A
C1108      C1109   1.422       .  A
C1109      C1111   1.399       .  A
C1109      C1110   1.404       .  A
C1110      H1121   1.084       .  S
C1111      C1112   1.390       .  A
C1111      H1122   1.084       .  S
C1112      C1113   1.400       .  A
C1112      H1123   1.084       .  S
C1113      C1114   1.421       .  A
C1113      C1118   1.404       .  A
C1114      C1115   1.412       .  A
C1115      C1116   1.391       .  A
C1115      H1124   1.077       .  S
C1116      C1117   1.401       .  A
C1116      H1125   1.081       .  S
C1117      C1118   1.404       .  A
C1118      H1126   1.082       .  S
C1127      C1128   1.402       .  A
C1127      C1132   1.402       .  A
C1128      C1129   1.396       .  A
C1128      H1141   1.082       .  S
C1129      C1130   1.414       .  A
C1129      H1142   1.077       .  S
C1130      C1136   1.430       .  A
C1130      C1131   1.422       .  A
C1131      C1133   1.399       .  A
C1131      C1132   1.404       .  A
C1132      H1143   1.083       .  S
C1133      C1134   1.389       .  A
C1133      H1144   1.084       .  S
C1134      C1135   1.399       .  A
C1134      H1145   1.084       .  S
C1135      C1136   1.422       .  A
C1135      C1140   1.404       .  A
C1136      C1137   1.415       .  A
C1137      C1138   1.396       .  A
C1137      H1146   1.077       .  S
C1138      C1139   1.401       .  A
C1138      H1147   1.083       .  S
C1139      C1140   1.402       .  A
C1140      H1148   1.084       .  S
C1149      C1150   1.402       .  A
C1149      C1154   1.403       .  A
C1150      C1151   1.397       .  A
C1150      H1163   1.081       .  S
C1151      C1152   1.415       .  A
C1151      H1164   1.077       .  S
C1152      C1158   1.429       .  A
C1152      C1153   1.421       .  A
C1153      C1155   1.399       .  A
C1153      C1154   1.402       .  A
C1154      H1165   1.082       .  S
C1155      C1156   1.388       .  A
C1155      H1166   1.084       .  S
C1156      C1157   1.399       .  A
C1156      H1167   1.084       .  S
C1157      C1158   1.423       .  A
C1157      C1162   1.403       .  A
C1158      C1159   1.414       .  A
C1159      C1160   1.395       .  A
C1159      H1168   1.077       .  S
C1160      C1161   1.401       .  A
C1160      H1169   1.083       .  S
C1161      C1162   1.401       .  A
C1162      H1170   1.084       .  S
C1171      C1172   1.400       .  A
C1171      C1176   1.400       .  A
C1172      C1173   1.396       .  A
C1172      H1185   1.083       .  S
C1173      C1174   1.415       .  A
C1173      H1186   1.077       .  S
C1174      C1180   1.429       .  A
C1174      C1175   1.423       .  A
C1175      C1177   1.399       .  A
C1175      C1176   1.403       .  A
C1176      H1187   1.085       .  S
C1177      C1178   1.388       .  A
C1177      H1188   1.084       .  S
C1178      C1179   1.399       .  A
C1178      H1189   1.084       .  S
C1179      C1180   1.422       .  A
C1179      C1184   1.403       .  A
C1180      C1181   1.415       .  A
C1181      C1182   1.396       .  A
C1181      H1190   1.077       .  S
C1182      C1183   1.400       .  A
C1182      H1191   1.082       .  S
C1183      C1184   1.402       .  A
C1184      H1192   1.083       .  S
C1193      C1194   1.400       .  A
C1193      C1198   1.402       .  A
C1194      C1195   1.393       .  A
C1194      H1207   1.083       .  S
C1195      C1196   1.414       .  A
C1195      H1208   1.076       .  S
C1196      C1202   1.427       .  A
C1196      C1197   1.422       .  A
C1197      C1199   1.399       .  A
C1197      C1198   1.404       .  A
C1198      H1209   1.084       .  S
C1199      C1200   1.389       .  A
C1199      H1210   1.084       .  S
C1200      C1201   1.400       .  A
C1200      H1211   1.084       .  S
C1201      C1202   1.421       .  A
C1201      C1206   1.403       .  A
C1202      C1203   1.413       .  A
C1203      C1204   1.394       .  A
C1203      H1212   1.077       .  S
C1204      C1205   1.401       .  A
C1204      H1213   1.081       .  S
C1205      C1206   1.403       .  A
C1206      H1214   1.082       .  S
C1215      C1216   1.403       .  A
C1215      C1220   1.403       .  A
C1216      C1217   1.396       .  A
C1216      H1229   1.081       .  S
C1217      C1218   1.413       .  A
C1217      H1230   1.077       .  S
C1218      C1224   1.430       .  A
C1218      C1219   1.422       .  A
C1219      C1221   1.399       .  A
C1219      C1220   1.405       .  A
C1220      H1231   1.082       .  S
C1221      C1222   1.389       .  A
C1221      H1232   1.084       .  S
C1222      C1223   1.399       .  A
C1222      H1233   1.084       .  S
C1223      C1224   1.422       .  A
C1223      C1228   1.404       .  A
C1224      C1225   1.415       .  A
C1225      C1226   1.396       .  A
C1225      H1234   1.077       .  S
C1226      C1227   1.401       .  A
C1226      H1235   1.083       .  S
C1227      C1228   1.402       .  A
C1228      H1236   1.084       .  S
C1237      C1238   1.402       .  A
C1237      C1242   1.404       .  A
C1238      C1239   1.394       .  A
C1238      H1251   1.081       .  S
C1239      C1240   1.413       .  A
C1239      H1252   1.077       .  S
C1240      C1246   1.428       .  A
C1240      C1241   1.421       .  A
C1241      C1243   1.400       .  A
C1241      C1242   1.405       .  A
C1242      H1253   1.082       .  S
C1243      C1244   1.390       .  A
C1243      H1254   1.084       .  S
C1244      C1245   1.399       .  A
C1244      H1255   1.084       .  S
C1245      C1246   1.422       .  A
C1245      C1250   1.405       .  A
C1246      C1247   1.414       .  A
C1247      C1248   1.394       .  A
C1247      H1256   1.077       .  S
C1248      C1249   1.400       .  A
C1248      H1257   1.083       .  S
C1249      C1250   1.403       .  A
C1250      H1258   1.084       .  S
C1259      C1260   1.401       .  A
C1259      C1264   1.403       .  A
C1260      C1261   1.393       .  A
C1260      H1273   1.081       .  S
C1261      C1262   1.413       .  A
C1261      H1274   1.077       .  S
C1262      C1268   1.427       .  A
C1262      C1263   1.421       .  A
C1263      C1265   1.400       .  A
C1263      C1264   1.404       .  A
C1264      H1275   1.082       .  S
C1265      C1266   1.389       .  A
C1265      H1276   1.084       .  S
C1266      C1267   1.399       .  A
C1266      H1277   1.084       .  S
C1267      C1268   1.422       .  A
C1267      C1272   1.403       .  A
C1268      C1269   1.414       .  A
C1269      C1270   1.393       .  A
C1269      H1278   1.077       .  S
C1270      C1271   1.400       .  A
C1270      H1279   1.083       .  S
C1271      C1272   1.401       .  A
C1272      H1280   1.084       .  S
C1281      C1282   1.401       .  A
C1281      C1286   1.402       .  A
C1282      C1283   1.395       .  A
C1282      H1295   1.083       .  S
C1283      C1284   1.414       .  A
C1283      H1296   1.077       .  S
C1284      C1290   1.429       .  A
C1284      C1285   1.422       .  A
C1285      C1287   1.399       .  A
C1285      C1286   1.404       .  A
C1286      H1297   1.084       .  S
C1287      C1288   1.389       .  A
C1287      H1298   1.084       .  S
C1288      C1289   1.399       .  A
C1288      H1299   1.084       .  S
C1289      C1290   1.421       .  A
C1289      C1294   1.404       .  A
C1290      C1291   1.413       .  A
C1291      C1292   1.395       .  A
C1291      H1300   1.077       .  S
C1292      C1293   1.403       .  A
C1292      H1301   1.081       .  S
C1293      C1294   1.403       .  A
C1294      H1302   1.082       .  S
C1303      C1304   1.403       .  A
C1303      C1308   1.404       .  A
C1304      C1305   1.396       .  A
C1304      H1317   1.081       .  S
C1305      C1306   1.413       .  A
C1305      H1318   1.077       .  S
C1306      C1312   1.431       .  A
C1306      C1307   1.422       .  A
C1307      C1309   1.400       .  A
C1307      C1308   1.406       .  A
C1308      H1319   1.083       .  S
C1309      C1310   1.390       .  A
C1309      H1320   1.084       .  S
C1310      C1311   1.400       .  A
C1310      H1321   1.084       .  S
C1311      C1312   1.422       .  A
C1311      C1316   1.406       .  A
C1312      C1313   1.415       .  A
C1313      C1314   1.397       .  A
C1313      H1322   1.077       .  S
C1314      C1315   1.401       .  A
C1314      H1323   1.083       .  S
C1315      C1316   1.403       .  A
C1316      H1324   1.084       .  S
C1325      C1326   1.400       .  A
C1325      C1330   1.403       .  A
C1326      C1327   1.394       .  A
C1326      H1339   1.083       .  S
C1327      C1328   1.414       .  A
C1327      H1340   1.076       .  S
C1328      C1334   1.428       .  A
C1328      C1329   1.422       .  A
C1329      C1331   1.400       .  A
C1329      C1330   1.405       .  A
C1330      H1341   1.084       .  S
C1331      C1332   1.391       .  A
C1331      H1342   1.084       .  S
C1332      C1333   1.400       .  A
C1332      H1343   1.084       .  S
C1333      C1334   1.421       .  A
C1333      C1338   1.406       .  A
C1334      C1335   1.412       .  A
C1335      C1336   1.393       .  A
C1335      H1344   1.076       .  S
C1336      C1337   1.402       .  A
C1336      H1345   1.081       .  S
C1337      C1338   1.404       .  A
C1338      H1346   1.082       .  S
C1347      C1348   1.403       .  A
C1347      C1352   1.403       .  A
C1348      C1349   1.396       .  A
C1348      H1361   1.081       .  S
C1349      C1350   1.414       .  A
C1349      H1362   1.077       .  S
C1350      C1356   1.430       .  A
C1350      C1351   1.421       .  A
C1351      C1353   1.399       .  A
C1351      C1352   1.404       .  A
C1352      H1363   1.082       .  S
C1353      C1354   1.388       .  A
C1353      H1364   1.084       .  S
C1354      C1355   1.399       .  A
C1354      H1365   1.084       .  S
C1355      C1356   1.422       .  A
C1355      C1360   1.404       .  A
C1356      C1357   1.415       .  A
C1357      C1358   1.396       .  A
C1357      H1366   1.077       .  S
C1358      C1359   1.401       .  A
C1358      H1367   1.083       .  S
C1359      C1360   1.401       .  A
C1360      H1368   1.084       .  S
C1369      C1370   1.402       .  A
C1369      C1374   1.402       .  A
C1370      C1371   1.397       .  A
C1370      H1383   1.082       .  S
C1371      C1372   1.415       .  A
C1371      H1384   1.077       .  S
C1372      C1378   1.430       .  A
C1372      C1373   1.421       .  A
C1373      C1375   1.399       .  A
C1373      C1374   1.403       .  A
C1374      H1385   1.082       .  S
C1375      C1376   1.388       .  A
C1375      H1386   1.084       .  S
C1376      C1377   1.398       .  A
C1376      H1387   1.084       .  S
C1377      C1378   1.423       .  A
C1377      C1382   1.404       .  A
C1378      C1379   1.414       .  A
C1379      C1380   1.397       .  A
C1379      H1388   1.077       .  S
C1380      C1381   1.402       .  A
C1380      H1389   1.083       .  S
C1381      C1382   1.401       .  A
C1382      H1390   1.084       .  S
C1391      C1392   1.401       .  A
C1391      C1396   1.403       .  A
C1392      C1393   1.393       .  A
C1392      H1405   1.081       .  S
C1393      C1394   1.413       .  A
C1393      H1406   1.077       .  S
C1394      C1400   1.428       .  A
C1394      C1395   1.422       .  A
C1395      C1397   1.400       .  A
C1395      C1396   1.405       .  A
C1396      H1407   1.083       .  S
C1397      C1398   1.390       .  A
C1397      H1408   1.084       .  S
C1398      C1399   1.399       .  A
C1398      H1409   1.084       .  S
C1399      C1400   1.422       .  A
C1399      C1404   1.404       .  A
C1400      C1401   1.414       .  A
C1401      C1402   1.393       .  A
C1401      H1410   1.077       .  S
C1402      C1403   1.400       .  A
C1402      H1411   1.083       .  S
C1403      C1404   1.402       .  A
C1404      H1412   1.084       .  S
C1413      C1414   1.401       .  A
C1413      C1418   1.402       .  A
C1414      C1415   1.396       .  A
C1414      H1427   1.082       .  S
C1415      C1416   1.414       .  A
C1415      H1428   1.077       .  S
C1416      C1422   1.430       .  A
C1416      C1417   1.422       .  A
C1417      C1419   1.399       .  A
C1417      C1418   1.405       .  A
C1418      H1429   1.084       .  S
C1419      C1420   1.389       .  A
C1419      H1430   1.084       .  S
C1420      C1421   1.399       .  A
C1420      H1431   1.084       .  S
C1421      C1422   1.422       .  A
C1421      C1426   1.404       .  A
C1422      C1423   1.415       .  A
C1423      C1424   1.397       .  A
C1423      H1432   1.077       .  S
C1424      C1425   1.400       .  A
C1424      H1433   1.083       .  S
C1425      C1426   1.402       .  A
C1426      H1434   1.084       .  S
C1435      C1436   1.403       .  A
C1435      C1440   1.403       .  A
C1436      C1437   1.397       .  A
C1436      H1449   1.081       .  S
C1437      C1438   1.414       .  A
C1437      H1450   1.077       .  S
C1438      C1444   1.430       .  A
C1438      C1439   1.421       .  A
C1439      C1441   1.399       .  A
C1439      C1440   1.403       .  A
C1440      H1451   1.082       .  S
C1441      C1442   1.388       .  A
C1441      H1452   1.084       .  S
C1442      C1443   1.399       .  A
C1442      H1453   1.084       .  S
C1443      C1444   1.423       .  A
C1443      C1448   1.404       .  A
C1444      C1445   1.415       .  A
C1445      C1446   1.397       .  A
C1445      H1454   1.077       .  S
C1446      C1447   1.402       .  A
C1446      H1455   1.083       .  S
C1447      C1448   1.401       .  A
C1448      H1456   1.084       .  S
C1457      C1458   1.403       .  A
C1457      C1462   1.403       .  A
C1458      C1459   1.397       .  A
C1458      H1471   1.081       .  S
C1459      C1460   1.414       .  A
C1459      H1472   1.077       .  S
C1460      C1466   1.431       .  A
C1460      C1461   1.422       .  A
C1461      C1463   1.399       .  A
C1461      C1462   1.404       .  A
C1462      H1473   1.083       .  S
C1463      C1464   1.389       .  A
C1463      H1474   1.084       .  S
C1464      C1465   1.399       .  A
C1464      H1475   1.084       .  S
C1465      C1466   1.422       .  A
C1465      C1470   1.404       .  A
C1466      C1467   1.415       .  A
C1467      C1468   1.397       .  A
C1467      H1476   1.077       .  S
C1468      C1469   1.402       .  A
C1468      H1477   1.083       .  S
C1469      C1470   1.401       .  A
C1470      H1478   1.084       .  S
C1479      C1480   1.400       .  A
C1479      C1484   1.403       .  A
C1480      C1481   1.395       .  A
C1480      H1493   1.083       .  S
C1481      C1482   1.415       .  A
C1481      H1494   1.077       .  S
C1482      C1488   1.429       .  A
C1482      C1483   1.422       .  A
C1483      C1485   1.400       .  A
C1483      C1484   1.406       .  A
C1484      H1495   1.084       .  S
C1485      C1486   1.391       .  A
C1485      H1496   1.084       .  S
C1486      C1487   1.400       .  A
C1486      H1497   1.084       .  S
C1487      C1488   1.422       .  A
C1487      C1492   1.408       .  A
C1488      C1489   1.412       .  A
C1489      C1490   1.393       .  A
C1489      H1498   1.077       .  S
C1490      C1491   1.403       .  A
C1490      H1499   1.081       .  S
C1491      C1492   1.404       .  A
C1492      H1500   1.083       .  S
C1501      C1502   1.401       .  A
C1501      C1506   1.405       .  A
C1502      C1503   1.392       .  A
C1502      H1515   1.081       .  S
C1503      C1504   1.413       .  A
C1503      H1516   1.077       .  S
C1504      C1510   1.426       .  A
C1504      C1505   1.421       .  A
C1505      C1507   1.400       .  A
C1505      C1506   1.404       .  A
C1506      H1517   1.082       .  S
C1507      C1508   1.391       .  A
C1507      H1518   1.084       .  S
C1508      C1509   1.400       .  A
C1508      H1519   1.084       .  S
C1509      C1510   1.422       .  A
C1509      C1514   1.405       .  A
C1510      C1511   1.413       .  A
C1511      C1512   1.391       .  A
C1511      H1520   1.076       .  S
C1512      C1513   1.400       .  A
C1512      H1521   1.083       .  S
C1513      C1514   1.403       .  A
C1514      H1522   1.084       .  S
C1523      C1524   1.403       .  A
C1523      C1528   1.402       .  A
C1524      C1525   1.395       .  A
C1524      H1537   1.081       .  S
C1525      C1526   1.412       .  A
C1525      H1538   1.077       .  S
C1526      C1532   1.429       .  A
C1526      C1527   1.422       .  A
C1527      C1529   1.399       .  A
C1527      C1528   1.404       .  A
C1528      H1539   1.082       .  S
C1529      C1530   1.388       .  A
C1529      H1540   1.084       .  S
C1530      C1531   1.399       .  A
C1530      H1541   1.084       .  S
C1531      C1532   1.421       .  A
C1531      C1536   1.401       .  A
C1532      C1533   1.416       .  A
C1533      C1534   1.397       .  A
C1533      H1542   1.077       .  S
C1534      C1535   1.400       .  A
C1534      H1543   1.083       .  S
C1535      C1536   1.402       .  A
C1536      H1544   1.084       .  S
C1545      C1546   1.402       .  A
C1545      C1550   1.403       .  A
C1546      C1547   1.396       .  A
C1546      H1559   1.081       .  S
C1547      C1548   1.414       .  A
C1547      H1560   1.077       .  S
C1548      C1554   1.429       .  A
C1548      C1549   1.422       .  A
C1549      C1551   1.399       .  A
C1549      C1550   1.403       .  A
C1550      H1561   1.082       .  S
C1551      C1552   1.388       .  A
C1551      H1562   1.084       .  S
C1552      C1553   1.399       .  A
C1552      H1563   1.084       .  S
C1553      C1554   1.422       .  A
C1553      C1558   1.403       .  A
C1554      C1555   1.415       .  A
C1555      C1556   1.397       .  A
C1555      H1564   1.077       .  S
C1556      C1557   1.401       .  A
C1556      H1565   1.083       .  S
C1557      C1558   1.402       .  A
C1558      H1566   1.084       .  S
C1567      C1568   1.402       .  A
C1567      C1572   1.402       .  A
C1568      C1569   1.397       .  A
C1568      H1581   1.081       .  S
C1569      C1570   1.414       .  A
C1569      H1582   1.077       .  S
C1570      C1576   1.429       .  A
C1570      C1571   1.422       .  A
C1571      C1573   1.399       .  A
C1571      C1572   1.402       .  A
C1572      H1583   1.083       .  S
C1573      C1574   1.387       .  A
C1573      H1584   1.084       .  S
C1574      C1575   1.399       .  A
C1574      H1585   1.084       .  S
C1575      C1576   1.422       .  A
C1575      C1580   1.402       .  A
C1576      C1577   1.415       .  A
C1577      C1578   1.397       .  A
C1577      H1586   1.077       .  S
C1578      C1579   1.401       .  A
C1578      H1587   1.083       .  S
C1579      C1580   1.401       .  A
C1580      H1588   1.084       .  S
C1589      C1590   1.402       .  A
C1589      C1594   1.404       .  A
C1590      C1591   1.394       .  A
C1590      H1603   1.081       .  S
C1591      C1592   1.413       .  A
C1591      H1604   1.077       .  S
C1592      C1598   1.429       .  A
C1592      C1593   1.422       .  A
C1593      C1595   1.400       .  A
C1593      C1594   1.406       .  A
C1594      H1605   1.083       .  S
C1595      C1596   1.390       .  A
C1595      H1606   1.084       .  S
C1596      C1597   1.400       .  A
C1596      H1607   1.084       .  S
C1597      C1598   1.422       .  A
C1597      C1602   1.405       .  A
C1598      C1599   1.414       .  A
C1599      C1600   1.394       .  A
C1599      H1608   1.077       .  S
C1600      C1601   1.400       .  A
C1600      H1609   1.083       .  S
C1601      C1602   1.403       .  A
C1602      H1610   1.084       .  S
C1611      C1612   1.402       .  A
C1611      C1616   1.404       .  A
C1612      C1613   1.394       .  A
C1612      H1625   1.081       .  S
C1613      C1614   1.413       .  A
C1613      H1626   1.077       .  S
C1614      C1620   1.428       .  A
C1614      C1615   1.421       .  A
C1615      C1617   1.400       .  A
C1615      C1616   1.404       .  A
C1616      H1627   1.082       .  S
C1617      C1618   1.389       .  A
C1617      H1628   1.084       .  S
C1618      C1619   1.399       .  A
C1618      H1629   1.084       .  S
C1619      C1620   1.422       .  A
C1619      C1624   1.404       .  A
C1620      C1621   1.414       .  A
C1621      C1622   1.394       .  A
C1621      H1630   1.077       .  S
C1622      C1623   1.400       .  A
C1622      H1631   1.083       .  S
C1623      C1624   1.402       .  A
C1624      H1632   1.084       .  S
C1633      C1634   1.401       .  A
C1633      C1638   1.402       .  A
C1634      C1635   1.395       .  A
C1634      H1647   1.082       .  S
C1635      C1636   1.414       .  A
C1635      H1648   1.077       .  S
C1636      C1642   1.429       .  A
C1636      C1637   1.422       .  A
C1637      C1639   1.399       .  A
C1637      C1638   1.403       .  A
C1638      H1649   1.083       .  S
C1639      C1640   1.389       .  A
C1639      H1650   1.084       .  S
C1640      C1641   1.399       .  A
C1640      H1651   1.084       .  S
C1641      C1642   1.422       .  A
C1641      C1646   1.404       .  A
C1642      C1643   1.414       .  A
C1643      C1644   1.395       .  A
C1643      H1652   1.077       .  S
C1644      C1645   1.401       .  A
C1644      H1653   1.083       .  S
C1645      C1646   1.401       .  A
C1646      H1654   1.084       .  S
C1655      C1656   1.402       .  A
C1655      C1660   1.404       .  A
C1656      C1657   1.393       .  A
C1656      H1669   1.081       .  S
C1657      C1658   1.413       .  A
C1657      H1670   1.077       .  S
C1658      C1664   1.427       .  A
C1658      C1659   1.421       .  A
C1659      C1661   1.400       .  A
C1659      C1660   1.404       .  A
C1660      H1671   1.082       .  S
C1661      C1662   1.390       .  A
C1661      H1672   1.084       .  S
C1662      C1663   1.399       .  A
C1662      H1673   1.084       .  S
C1663      C1664   1.423       .  A
C1663      C1668   1.405       .  A
C1664      C1665   1.413       .  A
C1665      C1666   1.392       .  A
C1665      H1674   1.076       .  S
C1666      C1667   1.401       .  A
C1666      H1675   1.083       .  S
C1667      C1668   1.401       .  A
C1668      H1676   1.084       .  S
C1677      C1678   1.402       .  A
C1677      C1682   1.402       .  A
C1678      C1679   1.394       .  A
C1678      H1691   1.081       .  S
C1679      C1680   1.413       .  A
C1679      H1692   1.077       .  S
C1680      C1686   1.427       .  A
C1680      C1681   1.422       .  A
C1681      C1683   1.399       .  A
C1681      C1682   1.402       .  A
C1682      H1693   1.082       .  S
C1683      C1684   1.388       .  A
C1683      H1694   1.084       .  S
C1684      C1685   1.399       .  A
C1684      H1695   1.084       .  S
C1685      C1686   1.422       .  A
C1685      C1690   1.401       .  A
C1686      C1687   1.415       .  A
C1687      C1688   1.395       .  A
C1687      H1696   1.077       .  S
C1688      C1689   1.400       .  A
C1688      H1697   1.083       .  S
C1689      C1690   1.401       .  A
C1690      H1698   1.084       .  S
C1699      C1700   1.402       .  A
C1699      C1704   1.402       .  A
C1700      C1701   1.394       .  A
C1700      H1713   1.081       .  S
C1701      C1702   1.413       .  A
C1701      H1714   1.077       .  S
C1702      C1708   1.427       .  A
C1702      C1703   1.421       .  A
C1703      C1705   1.399       .  A
C1703      C1704   1.402       .  A
C1704      H1715   1.082       .  S
C1705      C1706   1.388       .  A
C1705      H1716   1.084       .  S
C1706      C1707   1.398       .  A
C1706      H1717   1.084       .  S
C1707      C1708   1.422       .  A
C1707      C1712   1.402       .  A
C1708      C1709   1.414       .  A
C1709      C1710   1.395       .  A
C1709      H1718   1.077       .  S
C1710      C1711   1.401       .  A
C1710      H1719   1.083       .  S
C1711      C1712   1.400       .  A
C1712      H1720   1.084       .  S
C1721      C1722   1.401       .  A
C1721      C1726   1.404       .  A
C1722      C1723   1.392       .  A
C1722      H1735   1.081       .  S
C1723      C1724   1.412       .  A
C1723      H1736   1.077       .  S
C1724      C1730   1.427       .  A
C1724      C1725   1.422       .  A
C1725      C1727   1.400       .  A
C1725      C1726   1.405       .  A
C1726      H1737   1.083       .  S
C1727      C1728   1.390       .  A
C1727      H1738   1.084       .  S
C1728      C1729   1.400       .  A
C1728      H1739   1.084       .  S
C1729      C1730   1.421       .  A
C1729      C1734   1.404       .  A
C1730      C1731   1.415       .  A
C1731      C1732   1.393       .  A
C1731      H1740   1.077       .  S
C1732      C1733   1.399       .  A
C1732      H1741   1.083       .  S
C1733      C1734   1.403       .  A
C1734      H1742   1.084       .  S
C1743      C1744   1.401       .  A
C1743      C1748   1.402       .  A
C1744      C1745   1.392       .  A
C1744      H1757   1.081       .  S
C1745      C1746   1.412       .  A
C1745      H1758   1.076       .  S
C1746      C1752   1.427       .  A
C1746      C1747   1.422       .  A
C1747      C1749   1.399       .  A
C1747      C1748   1.405       .  A
C1748      H1759   1.083       .  S
C1749      C1750   1.390       .  A
C1749      H1760   1.084       .  S
C1750      C1751   1.399       .  A
C1750      H1761   1.084       .  S
C1751      C1752   1.421       .  A
C1751      C1756   1.404       .  A
C1752      C1753   1.415       .  A
C1753      C1754   1.393       .  A
C1753      H1762   1.076       .  S
C1754      C1755   1.400       .  A
C1754      H1763   1.083       .  S
C1755      C1756   1.402       .  A
C1756      H1764   1.084       .  S
C1765      C1766   1.402       .  A
C1765      C1770   1.403       .  A
C1766      C1767   1.396       .  A
C1766      H1779   1.081       .  S
C1767      C1768   1.414       .  A
C1767      H1780   1.077       .  S
C1768      C1774   1.429       .  A
C1768      C1769   1.421       .  A
C1769      C1771   1.399       .  A
C1769      C1770   1.403       .  A
C1770      H1781   1.082       .  S
C1771      C1772   1.388       .  A
C1771      H1782   1.084       .  S
C1772      C1773   1.399       .  A
C1772      H1783   1.084       .  S
C1773      C1774   1.422       .  A
C1773      C1778   1.403       .  A
C1774      C1775   1.415       .  A
C1775      C1776   1.396       .  A
C1775      H1784   1.077       .  S
C1776      C1777   1.401       .  A
C1776      H1785   1.083       .  S
C1777      C1778   1.402       .  A
C1778      H1786   1.084       .  S
C1787      C1788   1.402       .  A
C1787      C1792   1.401       .  A
C1788      C1789   1.397       .  A
C1788      H1801   1.082       .  S
C1789      C1790   1.415       .  A
C1789      H1802   1.077       .  S
C1790      C1796   1.429       .  A
C1790      C1791   1.421       .  A
C1791      C1793   1.398       .  A
C1791      C1792   1.401       .  A
C1792      H1803   1.083       .  S
C1793      C1794   1.387       .  A
C1793      H1804   1.084       .  S
C1794      C1795   1.398       .  A
C1794      H1805   1.084       .  S
C1795      C1796   1.423       .  A
C1795      C1800   1.402       .  A
C1796      C1797   1.415       .  A
C1797      C1798   1.397       .  A
C1797      H1806   1.077       .  S
C1798      C1799   1.402       .  A
C1798      H1807   1.083       .  S
C1799      C1800   1.400       .  A
C1800      H1808   1.084       .  S
C1809      C1810   1.402       .  A
C1809      C1814   1.403       .  A
C1810      C1811   1.394       .  A
C1810      H1823   1.081       .  S
C1811      C1812   1.413       .  A
C1811      H1824   1.077       .  S
C1812      C1818   1.429       .  A
C1812      C1813   1.422       .  A
C1813      C1815   1.400       .  A
C1813      C1814   1.405       .  A
C1814      H1825   1.082       .  S
C1815      C1816   1.390       .  A
C1815      H1826   1.084       .  S
C1816      C1817   1.399       .  A
C1816      H1827   1.084       .  S
C1817      C1818   1.422       .  A
C1817      C1822   1.404       .  A
C1818      C1819   1.415       .  A
C1819      C1820   1.395       .  A
C1819      H1828   1.077       .  S
C1820      C1821   1.400       .  A
C1820      H1829   1.083       .  S
C1821      C1822   1.402       .  A
C1822      H1830   1.084       .  S
C1831      C1832   1.402       .  A
C1831      C1836   1.403       .  A
C1832      C1833   1.395       .  A
C1832      H1845   1.081       .  S
C1833      C1834   1.414       .  A
C1833      H1846   1.077       .  S
C1834      C1840   1.428       .  A
C1834      C1835   1.421       .  A
C1835      C1837   1.400       .  A
C1835      C1836   1.404       .  A
C1836      H1847   1.083       .  S
C1837      C1838   1.389       .  A
C1837      H1848   1.084       .  S
C1838      C1839   1.399       .  A
C1838      H1849   1.084       .  S
C1839      C1840   1.423       .  A
C1839      C1844   1.405       .  A
C1840      C1841   1.413       .  A
C1841      C1842   1.394       .  A
C1841      H1850   1.077       .  S
C1842      C1843   1.401       .  A
C1842      H1851   1.083       .  S
C1843      C1844   1.401       .  A
C1844      H1852   1.084       .  S
C1853      C1854   1.401       .  A
C1853      C1858   1.403       .  A
C1854      C1855   1.393       .  A
C1854      H1867   1.081       .  S
C1855      C1856   1.413       .  A
C1855      H1868   1.077       .  S
C1856      C1862   1.427       .  A
C1856      C1857   1.421       .  A
C1857      C1859   1.400       .  A
C1857      C1858   1.405       .  A
C1858      H1869   1.083       .  S
C1859      C1860   1.390       .  A
C1859      H1870   1.084       .  S
C1860      C1861   1.399       .  A
C1860      H1871   1.084       .  S
C1861      C1862   1.422       .  A
C1861      C1866   1.405       .  A
C1862      C1863   1.413       .  A
C1863      C1864   1.392       .  A
C1863      H1872   1.076       .  S
C1864      C1865   1.400       .  A
C1864      H1873   1.083       .  S
C1865      C1866   1.402       .  A
C1866      H1874   1.084       .  S
C1875      C1876   1.403       .  A
C1875      C1880   1.403       .  A
C1876      C1877   1.395       .  A
C1876      H1889   1.081       .  S
C1877      C1878   1.413       .  A
C1877      H1890   1.077       .  S
C1878      C1884   1.430       .  A
C1878      C1879   1.422       .  A
C1879      C1881   1.399       .  A
C1879      C1880   1.405       .  A
C1880      H1891   1.082       .  S
C1881      C1882   1.389       .  A
C1881      H1892   1.084       .  S
C1882      C1883   1.399       .  A
C1882      H1893   1.084       .  S
C1883      C1884   1.421       .  A
C1883      C1888   1.403       .  A
C1884      C1885   1.416       .  A
C1885      C1886   1.398       .  A
C1885      H1894   1.077       .  S
C1886      C1887   1.400       .  A
C1886      H1895   1.083       .  S
C1887      C1888   1.403       .  A
C1888      H1896   1.084       .  S
C1897      C1898   1.401       .  A
C1897      C1902   1.403       .  A
C1898      C1899   1.395       .  A
C1898      H1911   1.083       .  S
C1899      C1900   1.414       .  A
C1899      H1912   1.077       .  S
C1900      C1906   1.430       .  A
C1900      C1901   1.423       .  A
C1901      C1903   1.400       .  A
C1901      C1902   1.407       .  A
C1902      H1913   1.084       .  S
C1903      C1904   1.391       .  A
C1903      H1914   1.084       .  S
C1904      C1905   1.400       .  A
C1904      H1915   1.084       .  S
C1905      C1906   1.421       .  A
C1905      C1910   1.406       .  A
C1906      C1907   1.414       .  A
C1907      C1908   1.396       .  A
C1907      H1916   1.077       .  S
C1908      C1909   1.402       .  A
C1908      H1917   1.081       .  S
C1909      C1910   1.405       .  A
C1910      H1918   1.082       .  S
C1919      C1920   1.401       .  A
C1919      C1924   1.403       .  A
C1920      C1921   1.396       .  A
C1920      H1933   1.083       .  S
C1921      C1922   1.415       .  A
C1921      H1934   1.077       .  S
C1922      C1928   1.430       .  A
C1922      C1923   1.422       .  A
C1923      C1925   1.399       .  A
C1923      C1924   1.405       .  A
C1924      H1935   1.084       .  S
C1925      C1926   1.390       .  A
C1925      H1936   1.084       .  S
C1926      C1927   1.400       .  A
C1926      H1937   1.084       .  S
C1927      C1928   1.422       .  A
C1927      C1932   1.406       .  A
C1928      C1929   1.413       .  A
C1929      C1930   1.395       .  A
C1929      H1938   1.077       .  S
C1930      C1931   1.402       .  A
C1930      H1939   1.081       .  S
C1931      C1932   1.404       .  A
C1932      H1940   1.082       .  S
C1941      C1942   1.400       .  A
C1941      C1946   1.403       .  A
C1942      C1943   1.396       .  A
C1942      H1955   1.083       .  S
C1943      C1944   1.415       .  A
C1943      H1956   1.077       .  S
C1944      C1950   1.430       .  A
C1944      C1945   1.422       .  A
C1945      C1947   1.400       .  A
C1945      C1946   1.405       .  A
C1946      H1957   1.084       .  S
C1947      C1948   1.390       .  A
C1947      H1958   1.084       .  S
C1948      C1949   1.400       .  A
C1948      H1959   1.084       .  S
C1949      C1950   1.422       .  A
C1949      C1954   1.406       .  A
C1950      C1951   1.413       .  A
C1951      C1952   1.394       .  A
C1951      H1960   1.077       .  S
C1952      C1953   1.402       .  A
C1952      H1961   1.081       .  S
C1953      C1954   1.403       .  A
C1954      H1962   1.083       .  S
C1963      C1964   1.401       .  A
C1963      C1968   1.404       .  A
C1964      C1965   1.395       .  A
C1964      H1977   1.081       .  S
C1965      C1966   1.414       .  A
C1965      H1978   1.077       .  S
C1966      C1972   1.429       .  A
C1966      C1967   1.421       .  A
C1967      C1969   1.400       .  A
C1967      C1968   1.405       .  A
C1968      H1979   1.083       .  S
C1969      C1970   1.390       .  A
C1969      H1980   1.084       .  S
C1970      C1971   1.399       .  A
C1970      H1981   1.084       .  S
C1971      C1972   1.422       .  A
C1971      C1976   1.405       .  A
C1972      C1973   1.414       .  A
C1973      C1974   1.395       .  A
C1973      H1982   1.077       .  S
C1974      C1975   1.401       .  A
C1974      H1983   1.083       .  S
C1975      C1976   1.403       .  A
C1976      H1984   1.084       .  S
C1985      C1986   1.401       .  A
C1985      C1990   1.403       .  A
C1986      C1987   1.394       .  A
C1986      H1999   1.082       .  S
C1987      C1988   1.414       .  A
C1987      H2000   1.076       .  S
C1988      C1994   1.428       .  A
C1988      C1989   1.421       .  A
C1989      C1991   1.399       .  A
C1989      C1990   1.404       .  A
C1990      H2001   1.083       .  S
C1991      C1992   1.389       .  A
C1991      H2002   1.084       .  S
C1992      C1993   1.399       .  A
C1992      H2003   1.084       .  S
C1993      C1994   1.422       .  A
C1993      C1998   1.404       .  A
C1994      C1995   1.414       .  A
C1995      C1996   1.394       .  A
C1995      H2004   1.076       .  S
C1996      C1997   1.400       .  A
C1996      H2005   1.083       .  S
C1997      C1998   1.401       .  A
C1998      H2006   1.084       .  S
C2007      C2008   1.402       .  A
C2007      C2012   1.404       .  A
C2008      C2009   1.394       .  A
C2008      H2021   1.081       .  S
C2009      C2010   1.413       .  A
C2009      H2022   1.077       .  S
C2010      C2016   1.429       .  A
C2010      C2011   1.421       .  A
C2011      C2013   1.400       .  A
C2011      C2012   1.406       .  A
C2012      H2023   1.082       .  S
C2013      C2014   1.390       .  A
C2013      H2024   1.084       .  S
C2014      C2015   1.400       .  A
C2014      H2025   1.084       .  S
C2015      C2016   1.422       .  A
C2015      C2020   1.406       .  A
C2016      C2017   1.414       .  A
C2017      C2018   1.394       .  A
C2017      H2026   1.077       .  S
C2018      C2019   1.401       .  A
C2018      H2027   1.083       .  S
C2019      C2020   1.403       .  A
C2020      H2028   1.084       .  S
C2029      C2030   1.401       .  A
C2029      C2034   1.402       .  A
C2030      C2031   1.396       .  A
C2030      H2043   1.083       .  S
C2031      C2032   1.415       .  A
C2031      H2044   1.077       .  S
C2032      C2038   1.430       .  A
C2032      C2033   1.422       .  A
C2033      C2035   1.400       .  A
C2033      C2034   1.405       .  A
C2034      H2045   1.084       .  S
C2035      C2036   1.390       .  A
C2035      H2046   1.084       .  S
C2036      C2037   1.399       .  A
C2036      H2047   1.084       .  S
C2037      C2038   1.422       .  A
C2037      C2042   1.407       .  A
C2038      C2039   1.413       .  A
C2039      C2040   1.395       .  A
C2039      H2048   1.077       .  S
C2040      C2041   1.403       .  A
C2040      H2049   1.081       .  S
C2041      C2042   1.403       .  A
C2042      H2050   1.083       .  S
C2051      C2052   1.401       .  A
C2051      C2056   1.401       .  A
C2052      C2053   1.397       .  A
C2052      H2065   1.083       .  S
C2053      C2054   1.415       .  A
C2053      H2066   1.077       .  S
C2054      C2060   1.430       .  A
C2054      C2055   1.422       .  A
C2055      C2057   1.398       .  A
C2055      C2056   1.402       .  A
C2056      H2067   1.084       .  S
C2057      C2058   1.388       .  A
C2057      H2068   1.084       .  S
C2058      C2059   1.399       .  A
C2058      H2069   1.084       .  S
C2059      C2060   1.422       .  A
C2059      C2064   1.403       .  A
C2060      C2061   1.414       .  A
C2061      C2062   1.397       .  A
C2061      H2070   1.077       .  S
C2062      C2063   1.403       .  A
C2062      H2071   1.081       .  S
C2063      C2064   1.402       .  A
C2064      H2072   1.082       .  S
C2073      C2074   1.401       .  A
C2073      C2078   1.401       .  A
C2074      C2075   1.396       .  A
C2074      H2087   1.083       .  S
C2075      C2076   1.416       .  A
C2075      H2088   1.077       .  S
C2076      C2082   1.428       .  A
C2076      C2077   1.422       .  A
C2077      C2079   1.399       .  A
C2077      C2078   1.401       .  A
C2078      H2089   1.085       .  S
C2079      C2080   1.387       .  A
C2079      H2090   1.084       .  S
C2080      C2081   1.399       .  A
C2080      H2091   1.084       .  S
C2081      C2082   1.422       .  A
C2081      C2086   1.402       .  A
C2082      C2083   1.413       .  A
C2083      C2084   1.395       .  A
C2083      H2092   1.077       .  S
C2084      C2085   1.403       .  A
C2084      H2093   1.081       .  S
C2085      C2086   1.402       .  A
C2086      H2094   1.082       .  S
C2095      C2096   1.402       .  A
C2095      C2100   1.404       .  A
C2096      C2097   1.393       .  A
C2096      H2109   1.081       .  S
C2097      C2098   1.413       .  A
C2097      H2110   1.077       .  S
C2098      C2104   1.429       .  A
C2098      C2099   1.422       .  A
C2099      C2101   1.400       .  A
C2099      C2100   1.407       .  A
C2100      H2111   1.083       .  S
C2101      C2102   1.391       .  A
C2101      H2112   1.084       .  S
C2102      C2103   1.400       .  A
C2102      H2113   1.084       .  S
C2103      C2104   1.422       .  A
C2103      C2108   1.407       .  A
C2104      C2105   1.414       .  A
C2105      C2106   1.394       .  A
C2105      H2114   1.077       .  S
C2106      C2107   1.401       .  A
C2106      H2115   1.083       .  S
C2107      C2108   1.403       .  A
C2108      H2116   1.084       .  S
C2117      C2118   1.403       .  A
C2117      C2122   1.401       .  A
C2118      C2119   1.397       .  A
C2118      H2131   1.081       .  S
C2119      C2120   1.413       .  A
C2119      H2132   1.077       .  S
C2120      C2126   1.430       .  A
C2120      C2121   1.422       .  A
C2121      C2123   1.398       .  A
C2121      C2122   1.402       .  A
C2122      H2133   1.082       .  S
C2123      C2124   1.387       .  A
C2123      H2134   1.084       .  S
C2124      C2125   1.398       .  A
C2124      H2135   1.084       .  S
C2125      C2126   1.421       .  A
C2125      C2130   1.400       .  A
C2126      C2127   1.416       .  A
C2127      C2128   1.398       .  A
C2127      H2136   1.077       .  S
C2128      C2129   1.401       .  A
C2128      H2137   1.083       .  S
C2129      C2130   1.401       .  A
C2130      H2138   1.084       .  S
C2139      C2140   1.401       .  A
C2139      C2144   1.403       .  A
C2140      C2141   1.394       .  A
C2140      H2153   1.081       .  S
C2141      C2142   1.414       .  A
C2141      H2154   1.077       .  S
C2142      C2148   1.427       .  A
C2142      C2143   1.421       .  A
C2143      C2145   1.399       .  A
C2143      C2144   1.403       .  A
C2144      H2155   1.083       .  S
C2145      C2146   1.389       .  A
C2145      H2156   1.084       .  S
C2146      C2147   1.399       .  A
C2146      H2157   1.084       .  S
C2147      C2148   1.422       .  A
C2147      C2152   1.404       .  A
C2148      C2149   1.414       .  A
C2149      C2150   1.393       .  A
C2149      H2158   1.077       .  S
C2150      C2151   1.401       .  A
C2150      H2159   1.083       .  S
C2151      C2152   1.401       .  A
C2152      H2160   1.084       .  S
C2161      C2162   1.400       .  A
C2161      C2166   1.401       .  A
C2162      C2163   1.393       .  A
C2162      H2175   1.082       .  S
C2163      C2164   1.413       .  A
C2163      H2176   1.077       .  S
C2164      C2170   1.427       .  A
C2164      C2165   1.422       .  A
C2165      C2167   1.399       .  A
C2165      C2166   1.403       .  A
C2166      H2177   1.083       .  S
C2167      C2168   1.389       .  A
C2167      H2178   1.084       .  S
C2168      C2169   1.399       .  A
C2168      H2179   1.084       .  S
C2169      C2170   1.421       .  A
C2169      C2174   1.402       .  A
C2170      C2171   1.415       .  A
C2171      C2172   1.394       .  A
C2171      H2180   1.077       .  S
C2172      C2173   1.400       .  A
C2172      H2181   1.083       .  S
C2173      C2174   1.402       .  A
C2174      H2182   1.084       .  S
C2183      C2184   1.400       .  A
C2183      C2188   1.404       .  A
C2184      C2185   1.393       .  A
C2184      H2197   1.083       .  S
C2185      C2186   1.414       .  A
C2185      H2198   1.076       .  S
C2186      C2192   1.429       .  A
C2186      C2187   1.422       .  A
C2187      C2189   1.400       .  A
C2187      C2188   1.406       .  A
C2188      H2199   1.084       .  S
C2189      C2190   1.391       .  A
C2189      H2200   1.084       .  S
C2190      C2191   1.400       .  A
C2190      H2201   1.084       .  S
C2191      C2192   1.421       .  A
C2191      C2196   1.406       .  A
C2192      C2193   1.413       .  A
C2193      C2194   1.393       .  A
C2193      H2202   1.076       .  S
C2194      C2195   1.402       .  A
C2194      H2203   1.081       .  S
C2195      C2196   1.405       .  A
C2196      H2204   1.082       .  S
C2205      C2206   1.403       .  A
C2205      C2210   1.401       .  A
C2206      C2207   1.398       .  A
C2206      H2219   1.081       .  S
C2207      C2208   1.415       .  A
C2207      H2220   1.077       .  S
C2208      C2214   1.429       .  A
C2208      C2209   1.421       .  A
C2209      C2211   1.398       .  A
C2209      C2210   1.400       .  A
C2210      H2221   1.082       .  S
C2211      C2212   1.386       .  A
C2211      H2222   1.084       .  S
C2212      C2213   1.398       .  A
C2212      H2223   1.084       .  S
C2213      C2214   1.423       .  A
C2213      C2218   1.401       .  A
C2214      C2215   1.415       .  A
C2215      C2216   1.397       .  A
C2215      H2224   1.077       .  S
C2216      C2217   1.402       .  A
C2216      H2225   1.083       .  S
C2217      C2218   1.400       .  A
C2218      H2226   1.085       .  S
C2227      C2228   1.402       .  A
C2227      C2232   1.400       .  A
C2228      C2229   1.396       .  A
C2228      H2241   1.083       .  S
C2229      C2230   1.414       .  A
C2229      H2242   1.077       .  S
C2230      C2236   1.429       .  A
C2230      C2231   1.423       .  A
C2231      C2233   1.398       .  A
C2231      C2232   1.402       .  A
C2232      H2243   1.084       .  S
C2233      C2234   1.387       .  A
C2233      H2244   1.084       .  S
C2234      C2235   1.399       .  A
C2234      H2245   1.084       .  S
C2235      C2236   1.421       .  A
C2235      C2240   1.400       .  A
C2236      C2237   1.416       .  A
C2237      C2238   1.398       .  A
C2237      H2246   1.077       .  S
C2238      C2239   1.402       .  A
C2238      H2247   1.082       .  S
C2239      C2240   1.402       .  A
C2240      H2248   1.082       .  S
C2249      C2250   1.399       .  A
C2249      C2254   1.403       .  A
C2250      C2251   1.390       .  A
C2250      H2263   1.083       .  S
C2251      C2252   1.413       .  A
C2251      H2264   1.077       .  S
C2252      C2258   1.425       .  A
C2252      C2253   1.421       .  A
C2253      C2255   1.400       .  A
C2253      C2254   1.405       .  A
C2254      H2265   1.084       .  S
C2255      C2256   1.391       .  A
C2255      H2266   1.084       .  S
C2256      C2257   1.400       .  A
C2256      H2267   1.084       .  S
C2257      C2258   1.421       .  A
C2257      C2262   1.406       .  A
C2258      C2259   1.411       .  A
C2259      C2260   1.389       .  A
C2259      H2268   1.077       .  S
C2260      C2261   1.400       .  A
C2260      H2269   1.081       .  S
C2261      C2262   1.403       .  A
C2262      H2270   1.083       .  S
C2271      C2272   1.401       .  A
C2271      C2276   1.404       .  A
C2272      C2273   1.394       .  A
C2272      H2285   1.081       .  S
C2273      C2274   1.413       .  A
C2273      H2286   1.077       .  S
C2274      C2280   1.428       .  A
C2274      C2275   1.421       .  A
C2275      C2277   1.400       .  A
C2275      C2276   1.405       .  A
C2276      H2287   1.083       .  S
C2277      C2278   1.390       .  A
C2277      H2288   1.084       .  S
C2278      C2279   1.399       .  A
C2278      H2289   1.084       .  S
C2279      C2280   1.422       .  A
C2279      C2284   1.405       .  A
C2280      C2281   1.414       .  A
C2281      C2282   1.394       .  A
C2281      H2290   1.077       .  S
C2282      C2283   1.400       .  A
C2282      H2291   1.083       .  S
C2283      C2284   1.402       .  A
C2284      H2292   1.084       .  S
C2293      C2294   1.404       .  A
C2293      C2298   1.404       .  A
C2294      C2295   1.395       .  A
C2294      H2307   1.080       .  S
C2295      C2296   1.412       .  A
C2295      H2308   1.077       .  S
C2296      C2302   1.431       .  A
C2296      C2297   1.422       .  A
C2297      C2299   1.400       .  A
C2297      C2298   1.408       .  A
C2298      H2309   1.083       .  S
C2299      C2300   1.391       .  A
C2299      H2310   1.084       .  S
C2300      C2301   1.400       .  A
C2300      H2311   1.084       .  S
C2301      C2302   1.422       .  A
C2301      C2306   1.406       .  A
C2302      C2303   1.415       .  A
C2303      C2304   1.396       .  A
C2303      H2312   1.077       .  S
C2304      C2305   1.401       .  A
C2304      H2313   1.083       .  S
C2305      C2306   1.403       .  A
C2306      H2314   1.084       .  S
C2315      C2316   1.401       .  A
C2315      C2320   1.403       .  A
C2316      C2317   1.392       .  A
C2316      H2329   1.081       .  S
C2317      C2318   1.413       .  A
C2317      H2330   1.077       .  S
C2318      C2324   1.427       .  A
C2318      C2319   1.422       .  A
C2319      C2321   1.400       .  A
C2319      C2320   1.405       .  A
C2320      H2331   1.083       .  S
C2321      C2322   1.390       .  A
C2321      H2332   1.084       .  S
C2322      C2323   1.399       .  A
C2322      H2333   1.084       .  S
C2323      C2324   1.422       .  A
C2323      C2328   1.404       .  A
C2324      C2325   1.414       .  A
C2325      C2326   1.393       .  A
C2325      H2334   1.077       .  S
C2326      C2327   1.400       .  A
C2326      H2335   1.083       .  S
C2327      C2328   1.402       .  A
C2328      H2336   1.084       .  S
C2337      C2338   1.400       .  A
C2337      C2342   1.401       .  A
C2338      C2339   1.395       .  A
C2338      H2351   1.083       .  S
C2339      C2340   1.415       .  A
C2339      H2352   1.077       .  S
C2340      C2346   1.428       .  A
C2340      C2341   1.422       .  A
C2341      C2343   1.399       .  A
C2341      C2342   1.401       .  A
C2342      H2353   1.085       .  S
C2343      C2344   1.388       .  A
C2343      H2354   1.084       .  S
C2344      C2345   1.399       .  A
C2344      H2355   1.084       .  S
C2345      C2346   1.422       .  A
C2345      C2350   1.403       .  A
C2346      C2347   1.413       .  A
C2347      C2348   1.394       .  A
C2347      H2356   1.077       .  S
C2348      C2349   1.402       .  A
C2348      H2357   1.081       .  S
C2349      C2350   1.403       .  A
C2350      H2358   1.082       .  S
C2359      C2360   1.402       .  A
C2359      C2364   1.404       .  A
C2360      C2361   1.396       .  A
C2360      H2373   1.081       .  S
C2361      C2362   1.414       .  A
C2361      H2374   1.077       .  S
C2362      C2368   1.431       .  A
C2362      C2363   1.422       .  A
C2363      C2365   1.400       .  A
C2363      C2364   1.407       .  A
C2364      H2375   1.083       .  S
C2365      C2366   1.390       .  A
C2365      H2376   1.084       .  S
C2366      C2367   1.400       .  A
C2366      H2377   1.084       .  S
C2367      C2368   1.422       .  A
C2367      C2372   1.406       .  A
C2368      C2369   1.415       .  A
C2369      C2370   1.397       .  A
C2369      H2378   1.077       .  S
C2370      C2371   1.401       .  A
C2370      H2379   1.083       .  S
C2371      C2372   1.403       .  A
C2372      H2380   1.084       .  S
C2381      C2382   1.402       .  A
C2381      C2386   1.402       .  A
C2382      C2383   1.399       .  A
C2382      H2395   1.083       .  S
C2383      C2384   1.416       .  A
C2383      H2396   1.077       .  S
C2384      C2390   1.432       .  A
C2384      C2385   1.422       .  A
C2385      C2387   1.399       .  A
C2385      C2386   1.404       .  A
C2386      H2397   1.084       .  S
C2387      C2388   1.388       .  A
C2387      H2398   1.084       .  S
C2388      C2389   1.399       .  A
C2388      H2399   1.084       .  S
C2389      C2390   1.422       .  A
C2389      C2394   1.404       .  A
C2390      C2391   1.414       .  A
C2391      C2392   1.399       .  A
C2391      H2400   1.077       .  S
C2392      C2393   1.404       .  A
C2392      H2401   1.081       .  S
C2393      C2394   1.403       .  A
C2394      H2402   1.082       .  S
C2403      C2404   1.401       .  A
C2403      C2408   1.403       .  A
C2404      C2405   1.393       .  A
C2404      H2417   1.081       .  S
C2405      C2406   1.413       .  A
C2405      H2418   1.077       .  S
C2406      C2412   1.428       .  A
C2406      C2407   1.422       .  A
C2407      C2409   1.400       .  A
C2407      C2408   1.406       .  A
C2408      H2419   1.083       .  S
C2409      C2410   1.390       .  A
C2409      H2420   1.084       .  S
C2410      C2411   1.400       .  A
C2410      H2421   1.084       .  S
C2411      C2412   1.422       .  A
C2411      C2416   1.405       .  A
C2412      C2413   1.414       .  A
C2413      C2414   1.394       .  A
C2413      H2422   1.077       .  S
C2414      C2415   1.400       .  A
C2414      H2423   1.083       .  S
C2415      C2416   1.402       .  A
C2416      H2424   1.084       .  S
C2425      C2426   1.402       .  A
C2425      C2430   1.401       .  A
C2426      C2427   1.397       .  A
C2426      H2439   1.083       .  S
C2427      C2428   1.415       .  A
C2427      H2440   1.077       .  S
C2428      C2434   1.430       .  A
C2428      C2429   1.422       .  A
C2429      C2431   1.399       .  A
C2429      C2430   1.404       .  A
C2430      H2441   1.084       .  S
C2431      C2432   1.389       .  A
C2431      H2442   1.084       .  S
C2432      C2433   1.399       .  A
C2432      H2443   1.084       .  S
C2433      C2434   1.422       .  A
C2433      C2438   1.405       .  A
C2434      C2435   1.414       .  A
C2435      C2436   1.396       .  A
C2435      H2444   1.077       .  S
C2436      C2437   1.403       .  A
C2436      H2445   1.081       .  S
C2437      C2438   1.403       .  A
C2438      H2446   1.083       .  S
C2447      C2448   1.401       .  A
C2447      C2452   1.402       .  A
C2448      C2449   1.394       .  A
C2448      H2461   1.083       .  S
C2449      C2450   1.414       .  A
C2449      H2462   1.077       .  S
C2450      C2456   1.429       .  A
C2450      C2451   1.423       .  A
C2451      C2453   1.399       .  A
C2451      C2452   1.405       .  A
C2452      H2463   1.084       .  S
C2453      C2454   1.389       .  A
C2453      H2464   1.084       .  S
C2454      C2455   1.400       .  A
C2454      H2465   1.084       .  S
C2455      C2456   1.421       .  A
C2455      C2460   1.404       .  A
C2456      C2457   1.414       .  A
C2457      C2458   1.395       .  A
C2457      H2466   1.077       .  S
C2458      C2459   1.402       .  A
C2458      H2467   1.081       .  S
C2459      C2460   1.404       .  A
C2460      H2468   1.082       .  S
C2469      C2470   1.401       .  A
C2469      C2474   1.402       .  A
C2470      C2471   1.398       .  A
C2470      H2483   1.083       .  S
C2471      C2472   1.416       .  A
C2471      H2484   1.077       .  S
C2472      C2478   1.430       .  A
C2472      C2473   1.421       .  A
C2473      C2475   1.399       .  A
C2473      C2474   1.402       .  A
C2474      H2485   1.084       .  S
C2475      C2476   1.388       .  A
C2475      H2486   1.084       .  S
C2476      C2477   1.399       .  A
C2476      H2487   1.084       .  S
C2477      C2478   1.422       .  A
C2477      C2482   1.404       .  A
C2478      C2479   1.413       .  A
C2479      C2480   1.396       .  A
C2479      H2488   1.077       .  S
C2480      C2481   1.403       .  A
C2480      H2489   1.081       .  S
C2481      C2482   1.402       .  A
C2482      H2490   1.082       .  S
C2491      C2492   1.403       .  A
C2491      C2496   1.401       .  A
C2492      C2493   1.396       .  A
C2492      H2505   1.082       .  S
C2493      C2494   1.413       .  A
C2493      H2506   1.077       .  S
C2494      C2500   1.430       .  A
C2494      C2495   1.423       .  A
C2495      C2497   1.399       .  A
C2495      C2496   1.405       .  A
C2496      H2507   1.083       .  S
C2497      C2498   1.388       .  A
C2497      H2508   1.084       .  S
C2498      C2499   1.399       .  A
C2498      H2509   1.084       .  S
C2499      C2500   1.421       .  A
C2499      C2504   1.402       .  A
C2500      C2501   1.417       .  A
C2501      C2502   1.398       .  A
C2501      H2510   1.077       .  S
C2502      C2503   1.400       .  A
C2502      H2511   1.083       .  S
C2503      C2504   1.402       .  A
C2504      H2512   1.084       .  S
C2513      C2514   1.400       .  A
C2513      C2518   1.405       .  A
C2514      C2515   1.395       .  A
C2514      H2527   1.083       .  S
C2515      C2516   1.415       .  A
C2515      H2528   1.076       .  S
C2516      C2522   1.430       .  A
C2516      C2517   1.422       .  A
C2517      C2519   1.400       .  A
C2517      C2518   1.407       .  A
C2518      H2529   1.084       .  S
C2519      C2520   1.392       .  A
C2519      H2530   1.084       .  S
C2520      C2521   1.401       .  A
C2520      H2531   1.084       .  S
C2521      C2522   1.422       .  A
C2521      C2526   1.409       .  A
C2522      C2523   1.412       .  A
C2523      C2524   1.394       .  A
C2523      H2532   1.076       .  S
C2524      C2525   1.402       .  A
C2524      H2533   1.081       .  S
C2525      C2526   1.406       .  A
C2526      H2534   1.082       .  S
C2535      C2536   1.401       .  A
C2535      C2540   1.402       .  A
C2536      C2537   1.395       .  A
C2536      H2549   1.082       .  S
C2537      C2538   1.414       .  A
C2537      H2550   1.077       .  S
C2538      C2544   1.429       .  A
C2538      C2539   1.422       .  A
C2539      C2541   1.399       .  A
C2539      C2540   1.404       .  A
C2540      H2551   1.083       .  S
C2541      C2542   1.389       .  A
C2541      H2552   1.084       .  S
C2542      C2543   1.399       .  A
C2542      H2553   1.084       .  S
C2543      C2544   1.423       .  A
C2543      C2548   1.405       .  A
C2544      C2545   1.415       .  A
C2545      C2546   1.396       .  A
C2545      H2554   1.077       .  S
C2546      C2547   1.401       .  A
C2546      H2555   1.083       .  S
C2547      C2548   1.401       .  A
C2548      H2556   1.084       .  S
C2557      C2558   1.401       .  A
C2557      C2562   1.404       .  A
C2558      C2559   1.394       .  A
C2558      H2571   1.081       .  S
C2559      C2560   1.413       .  A
C2559      H2572   1.076       .  S
C2560      C2566   1.428       .  A
C2560      C2561   1.421       .  A
C2561      C2563   1.400       .  A
C2561      C2562   1.405       .  A
C2562      H2573   1.082       .  S
C2563      C2564   1.390       .  A
C2563      H2574   1.084       .  S
C2564      C2565   1.399       .  A
C2564      H2575   1.084       .  S
C2565      C2566   1.422       .  A
C2565      C2570   1.405       .  A
C2566      C2567   1.414       .  A
C2567      C2568   1.394       .  A
C2567      H2576   1.076       .  S
C2568      C2569   1.400       .  A
C2568      H2577   1.083       .  S
C2569      C2570   1.402       .  A
C2570      H2578   1.084       .  S
C2579      C2580   1.401       .  A
C2579      C2584   1.402       .  A
C2580      C2581   1.394       .  A
C2580      H2593   1.083       .  S
C2581      C2582   1.414       .  A
C2581      H2594   1.077       .  S
C2582      C2588   1.428       .  A
C2582      C2583   1.422       .  A
C2583      C2585   1.399       .  A
C2583      C2584   1.404       .  A
C2584      H2595   1.084       .  S
C2585      C2586   1.390       .  A
C2585      H2596   1.084       .  S
C2586      C2587   1.399       .  A
C2586      H2597   1.084       .  S
C2587      C2588   1.422       .  A
C2587      C2592   1.405       .  A
C2588      C2589   1.413       .  A
C2589      C2590   1.393       .  A
C2589      H2598   1.077       .  S
C2590      C2591   1.402       .  A
C2590      H2599   1.081       .  S
C2591      C2592   1.403       .  A
C2592      H2600   1.083       .  S
C2601      C2602   1.401       .  A
C2601      C2606   1.402       .  A
C2602      C2603   1.394       .  A
C2602      H2615   1.083       .  S
C2603      C2604   1.414       .  A
C2603      H2616   1.077       .  S
C2604      C2610   1.428       .  A
C2604      C2605   1.422       .  A
C2605      C2607   1.399       .  A
C2605      C2606   1.405       .  A
C2606      H2617   1.084       .  S
C2607      C2608   1.390       .  A
C2607      H2618   1.084       .  S
C2608      C2609   1.400       .  A
C2608      H2619   1.084       .  S
C2609      C2610   1.422       .  A
C2609      C2614   1.405       .  A
C2610      C2611   1.414       .  A
C2611      C2612   1.394       .  A
C2611      H2620   1.077       .  S
C2612      C2613   1.401       .  A
C2612      H2621   1.082       .  S
C2613      C2614   1.403       .  A
C2614      H2622   1.083       .  S
C2623      C2624   1.402       .  A
C2623      C2628   1.405       .  A
C2624      C2625   1.395       .  A
C2624      H2637   1.081       .  S
C2625      C2626   1.414       .  A
C2625      H2638   1.077       .  S
C2626      C2632   1.429       .  A
C2626      C2627   1.420       .  A
C2627      C2629   1.400       .  A
C2627      C2628   1.405       .  A
C2628      H2639   1.082       .  S
C2629      C2630   1.390       .  A
C2629      H2640   1.084       .  S
C2630      C2631   1.399       .  A
C2630      H2641   1.084       .  S
C2631      C2632   1.423       .  A
C2631      C2636   1.406       .  A
C2632      C2633   1.413       .  A
C2633      C2634   1.394       .  A
C2633      H2642   1.077       .  S
C2634      C2635   1.401       .  A
C2634      H2643   1.083       .  S
C2635      C2636   1.402       .  A
C2636      H2644   1.084       .  S
C2645      C2646   1.402       .  A
C2645      C2650   1.404       .  A
C2646      C2647   1.395       .  A
C2646      H2659   1.081       .  S
C2647      C2648   1.414       .  A
C2647      H2660   1.077       .  S
C2648      C2654   1.430       .  A
C2648      C2649   1.421       .  A
C2649      C2651   1.400       .  A
C2649      C2650   1.406       .  A
C2650      H2661   1.083       .  S
C2651      C2652   1.390       .  A
C2651      H2662   1.084       .  S
C2652      C2653   1.399       .  A
C2652      H2663   1.084       .  S
C2653      C2654   1.423       .  A
C2653      C2658   1.407       .  A
C2654      C2655   1.414       .  A
C2655      C2656   1.394       .  A
C2655      H2664   1.077       .  S
C2656      C2657   1.401       .  A
C2656      H2665   1.083       .  S
C2657      C2658   1.402       .  A
C2658      H2666   1.084       .  S
C2667      C2668   1.401       .  A
C2667      C2672   1.405       .  A
C2668      C2669   1.392       .  A
C2668      H2681   1.081       .  S
C2669      C2670   1.412       .  A
C2669      H2682   1.077       .  S
C2670      C2676   1.429       .  A
C2670      C2671   1.422       .  A
C2671      C2673   1.400       .  A
C2671      C2672   1.407       .  A
C2672      H2683   1.083       .  S
C2673      C2674   1.392       .  A
C2673      H2684   1.084       .  S
C2674      C2675   1.401       .  A
C2674      H2685   1.084       .  S
C2675      C2676   1.422       .  A
C2675      C2680   1.406       .  A
C2676      C2677   1.414       .  A
C2677      C2678   1.394       .  A
C2677      H2686   1.077       .  S
C2678      C2679   1.400       .  A
C2678      H2687   1.083       .  S
C2679      C2680   1.404       .  A
C2680      H2688   1.084       .  S
C2689      C2690   1.402       .  A
C2689      C2694   1.401       .  A
C2690      C2691   1.396       .  A
C2690      H2703   1.082       .  S
C2691      C2692   1.414       .  A
C2691      H2704   1.077       .  S
C2692      C2698   1.429       .  A
C2692      C2693   1.422       .  A
C2693      C2695   1.399       .  A
C2693      C2694   1.403       .  A
C2694      H2705   1.083       .  S
C2695      C2696   1.388       .  A
C2695      H2706   1.084       .  S
C2696      C2697   1.399       .  A
C2696      H2707   1.084       .  S
C2697      C2698   1.422       .  A
C2697      C2702   1.402       .  A
C2698      C2699   1.415       .  A
C2699      C2700   1.396       .  A
C2699      H2708   1.077       .  S
C2700      C2701   1.401       .  A
C2700      H2709   1.083       .  S
C2701      C2702   1.401       .  A
C2702      H2710   1.085       .  S
C2711      C2712   1.401       .  A
C2711      C2716   1.402       .  A
C2712      C2713   1.392       .  A
C2712      H2725   1.083       .  S
C2713      C2714   1.412       .  A
C2713      H2726   1.076       .  S
C2714      C2720   1.428       .  A
C2714      C2715   1.423       .  A
C2715      C2717   1.399       .  A
C2715      C2716   1.406       .  A
C2716      H2727   1.084       .  S
C2717      C2718   1.390       .  A
C2717      H2728   1.084       .  S
C2718      C2719   1.400       .  A
C2718      H2729   1.084       .  S
C2719      C2720   1.420       .  A
C2719      C2724   1.404       .  A
C2720      C2721   1.415       .  A
C2721      C2722   1.394       .  A
C2721      H2730   1.076       .  S
C2722      C2723   1.400       .  A
C2722      H2731   1.082       .  S
C2723      C2724   1.404       .  A
C2724      H2732   1.082       .  S
C2733      C2734   1.401       .  A
C2733      C2738   1.403       .  A
C2734      C2735   1.393       .  A
C2734      H2747   1.082       .  S
C2735      C2736   1.413       .  A
C2735      H2748   1.076       .  S
C2736      C2742   1.428       .  A
C2736      C2737   1.422       .  A
C2737      C2739   1.400       .  A
C2737      C2738   1.406       .  A
C2738      H2749   1.083       .  S
C2739      C2740   1.391       .  A
C2739      H2750   1.084       .  S
C2740      C2741   1.400       .  A
C2740      H2751   1.084       .  S
C2741      C2742   1.422       .  A
C2741      C2746   1.406       .  A
C2742      C2743   1.414       .  A
C2743      C2744   1.393       .  A
C2743      H2752   1.076       .  S
C2744      C2745   1.399       .  A
C2744      H2753   1.083       .  S
C2745      C2746   1.403       .  A
C2746      H2754   1.084       .  S
C2755      C2756   1.401       .  A
C2755      C2760   1.401       .  A
C2756      C2757   1.396       .  A
C2756      H2769   1.083       .  S
C2757      C2758   1.415       .  A
C2757      H2770   1.077       .  S
C2758      C2764   1.429       .  A
C2758      C2759   1.422       .  A
C2759      C2761   1.398       .  A
C2759      C2760   1.402       .  A
C2760      H2771   1.084       .  S
C2761      C2762   1.387       .  A
C2761      H2772   1.084       .  S
C2762      C2763   1.399       .  A
C2762      H2773   1.084       .  S
C2763      C2764   1.421       .  A
C2763      C2768   1.402       .  A
C2764      C2765   1.414       .  A
C2765      C2766   1.396       .  A
C2765      H2774   1.077       .  S
C2766      C2767   1.402       .  A
C2766      H2775   1.082       .  S
C2767      C2768   1.402       .  A
C2768      H2776   1.082       .  S
C2777      C2778   1.401       .  A
C2777      C2782   1.404       .  A
C2778      C2779   1.394       .  A
C2778      H2791   1.083       .  S
C2779      C2780   1.414       .  A
C2779      H2792   1.076       .  S
C2780      C2786   1.429       .  A
C2780      C2781   1.422       .  A
C2781      C2783   1.400       .  A
C2781      C2782   1.407       .  A
C2782      H2793   1.084       .  S
C2783      C2784   1.391       .  A
C2783      H2794   1.084       .  S
C2784      C2785   1.400       .  A
C2784      H2795   1.084       .  S
C2785      C2786   1.421       .  A
C2785      C2790   1.407       .  A
C2786      C2787   1.413       .  A
C2787      C2788   1.394       .  A
C2787      H2796   1.076       .  S
C2788      C2789   1.401       .  A
C2788      H2797   1.082       .  S
C2789      C2790   1.404       .  A
C2790      H2798   1.083       .  S
C2799      C2800   1.403       .  A
C2799      C2804   1.402       .  A
C2800      C2801   1.394       .  A
C2800      H2813   1.081       .  S
C2801      C2802   1.413       .  A
C2801      H2814   1.077       .  S
C2802      C2808   1.429       .  A
C2802      C2803   1.422       .  A
C2803      C2805   1.399       .  A
C2803      C2804   1.405       .  A
C2804      H2815   1.082       .  S
C2805      C2806   1.389       .  A
C2805      H2816   1.084       .  S
C2806      C2807   1.399       .  A
C2806      H2817   1.084       .  S
C2807      C2808   1.422       .  A
C2807      C2812   1.404       .  A
C2808      C2809   1.415       .  A
C2809      C2810   1.395       .  A
C2809      H2818   1.077       .  S
C2810      C2811   1.401       .  A
C2810      H2819   1.083       .  S
C2811      C2812   1.401       .  A
C2812      H2820   1.084       .  S
C2821      C2822   1.400       .  A
C2821      C2826   1.404       .  A
C2822      C2823   1.391       .  A
C2822      H2835   1.083       .  S
C2823      C2824   1.413       .  A
C2823      H2836   1.076       .  S
C2824      C2830   1.427       .  A
C2824      C2825   1.422       .  A
C2825      C2827   1.400       .  A
C2825      C2826   1.407       .  A
C2826      H2837   1.084       .  S
C2827      C2828   1.392       .  A
C2827      H2838   1.084       .  S
C2828      C2829   1.401       .  A
C2828      H2839   1.084       .  S
C2829      C2830   1.421       .  A
C2829      C2834   1.407       .  A
C2830      C2831   1.413       .  A
C2831      C2832   1.391       .  A
C2831      H2840   1.077       .  S
C2832      C2833   1.401       .  A
C2832      H2841   1.081       .  S
C2833      C2834   1.405       .  A
C2834      H2842   1.083       .  S
C2843      C2844   1.402       .  A
C2843      C2848   1.405       .  A
C2844      C2845   1.395       .  A
C2844      H2857   1.081       .  S
C2845      C2846   1.414       .  A
C2845      H2858   1.077       .  S
C2846      C2852   1.429       .  A
C2846      C2847   1.421       .  A
C2847      C2849   1.400       .  A
C2847      C2848   1.406       .  A
C2848      H2859   1.082       .  S
C2849      C2850   1.391       .  A
C2849      H2860   1.084       .  S
C2850      C2851   1.400       .  A
C2850      H2861   1.084       .  S
C2851      C2852   1.423       .  A
C2851      C2856   1.407       .  A
C2852      C2853   1.413       .  A
C2853      C2854   1.393       .  A
C2853      H2862   1.077       .  S
C2854      C2855   1.401       .  A
C2854      H2863   1.083       .  S
C2855      C2856   1.403       .  A
C2856      H2864   1.084       .  S
C2865      C2866   1.403       .  A
C2865      C2870   1.402       .  A
C2866      C2867   1.398       .  A
C2866      H2879   1.083       .  S
C2867      C2868   1.415       .  A
C2867      H2880   1.077       .  S
C2868      C2874   1.432       .  A
C2868      C2869   1.423       .  A
C2869      C2871   1.399       .  A
C2869      C2870   1.406       .  A
C2870      H2881   1.084       .  S
C2871      C2872   1.389       .  A
C2871      H2882   1.084       .  S
C2872      C2873   1.399       .  A
C2872      H2883   1.084       .  S
C2873      C2874   1.421       .  A
C2873      C2878   1.405       .  A
C2874      C2875   1.415       .  A
C2875      C2876   1.399       .  A
C2875      H2884   1.077       .  S
C2876      C2877   1.403       .  A
C2876      H2885   1.082       .  S
C2877      C2878   1.403       .  A
C2878      H2886   1.082       .  S
C2887      C2888   1.402       .  A
C2887      C2892   1.404       .  A
C2888      C2889   1.394       .  A
C2888      H2901   1.081       .  S
C2889      C2890   1.412       .  A
C2889      H2902   1.077       .  S
C2890      C2896   1.429       .  A
C2890      C2891   1.422       .  A
C2891      C2893   1.400       .  A
C2891      C2892   1.406       .  A
C2892      H2903   1.082       .  S
C2893      C2894   1.390       .  A
C2893      H2904   1.084       .  S
C2894      C2895   1.400       .  A
C2894      H2905   1.084       .  S
C2895      C2896   1.421       .  A
C2895      C2900   1.405       .  A
C2896      C2897   1.415       .  A
C2897      C2898   1.396       .  A
C2897      H2906   1.077       .  S
C2898      C2899   1.400       .  A
C2898      H2907   1.083       .  S
C2899      C2900   1.404       .  A
C2900      H2908   1.084       .  S
C2909      C2910   1.399       .  A
C2909      C2914   1.401       .  A
C2910      C2911   1.393       .  A
C2910      H2923   1.083       .  S
C2911      C2912   1.415       .  A
C2911      H2924   1.076       .  S
C2912      C2918   1.426       .  A
C2912      C2913   1.421       .  A
C2913      C2915   1.399       .  A
C2913      C2914   1.401       .  A
C2914      H2925   1.084       .  S
C2915      C2916   1.388       .  A
C2915      H2926   1.084       .  S
C2916      C2917   1.399       .  A
C2916      H2927   1.084       .  S
C2917      C2918   1.421       .  A
C2917      C2922   1.402       .  A
C2918      C2919   1.413       .  A
C2919      C2920   1.393       .  A
C2919      H2928   1.077       .  S
C2920      C2921   1.401       .  A
C2920      H2929   1.081       .  S
C2921      C2922   1.402       .  A
C2922      H2930   1.082       .  S
C2931      C2932   1.403       .  A
C2931      C2936   1.402       .  A
C2932      C2933   1.394       .  A
C2932      H2945   1.081       .  S
C2933      C2934   1.412       .  A
C2933      H2946   1.077       .  S
C2934      C2940   1.429       .  A
C2934      C2935   1.422       .  A
C2935      C2937   1.399       .  A
C2935      C2936   1.405       .  A
C2936      H2947   1.082       .  S
C2937      C2938   1.389       .  A
C2937      H2948   1.084       .  S
C2938      C2939   1.399       .  A
C2938      H2949   1.084       .  S
C2939      C2940   1.421       .  A
C2939      C2944   1.403       .  A
C2940      C2941   1.415       .  A
C2941      C2942   1.396       .  A
C2941      H2950   1.077       .  S
C2942      C2943   1.401       .  A
C2942      H2951   1.083       .  S
C2943      C2944   1.402       .  A
C2944      H2952   1.084       .  S
C2953      C2954   1.402       .  A
C2953      C2958   1.405       .  A
C2954      C2955   1.394       .  A
C2954      H2967   1.081       .  S
C2955      C2956   1.413       .  A
C2955      H2968   1.077       .  S
C2956      C2962   1.430       .  A
C2956      C2957   1.421       .  A
C2957      C2959   1.400       .  A
C2957      C2958   1.407       .  A
C2958      H2969   1.082       .  S
C2959      C2960   1.391       .  A
C2959      H2970   1.084       .  S
C2960      C2961   1.400       .  A
C2960      H2971   1.084       .  S
C2961      C2962   1.422       .  A
C2961      C2966   1.407       .  A
C2962      C2963   1.414       .  A
C2963      C2964   1.394       .  A
C2963      H2972   1.077       .  S
C2964      C2965   1.401       .  A
C2964      H2973   1.083       .  S
C2965      C2966   1.403       .  A
C2966      H2974   1.084       .  S
C2975      C2976   1.402       .  A
C2975      C2980   1.401       .  A
C2976      C2977   1.394       .  A
C2976      H2989   1.083       .  S
C2977      C2978   1.413       .  A
C2977      H2990   1.077       .  S
C2978      C2984   1.429       .  A
C2978      C2979   1.423       .  A
C2979      C2981   1.399       .  A
C2979      C2980   1.406       .  A
C2980      H2991   1.084       .  S
C2981      C2982   1.390       .  A
C2981      H2992   1.084       .  S
C2982      C2983   1.400       .  A
C2982      H2993   1.084       .  S
C2983      C2984   1.421       .  A
C2983      C2988   1.405       .  A
C2984      C2985   1.414       .  A
C2985      C2986   1.395       .  A
C2985      H2994   1.077       .  S
C2986      C2987   1.402       .  A
C2986      H2995   1.081       .  S
C2987      C2988   1.404       .  A
C2988      H2996   1.083       .  S
C2997      C2998   1.403       .  A
C2997      C3002   1.404       .  A
C2998      C2999   1.397       .  A
C2998      H3011   1.081       .  S
C2999      C3000   1.414       .  A
C2999      H3012   1.077       .  S
C3000      C3006   1.431       .  A
C3000      C3001   1.421       .  A
C3001      C3003   1.399       .  A
C3001      C3002   1.405       .  A
C3002      H3013   1.082       .  S
C3003      C3004   1.389       .  A
C3003      H3014   1.084       .  S
C3004      C3005   1.399       .  A
C3004      H3015   1.084       .  S
C3005      C3006   1.422       .  A
C3005      C3010   1.404       .  A
C3006      C3007   1.415       .  A
C3007      C3008   1.397       .  A
C3007      H3016   1.077       .  S
C3008      C3009   1.401       .  A
C3008      H3017   1.083       .  S
C3009      C3010   1.402       .  A
C3010      H3018   1.084       .  S
C3019      C3020   1.402       .  A
C3019      C3024   1.402       .  A
C3020      C3021   1.397       .  A
C3020      H3033   1.083       .  S
C3021      C3022   1.415       .  A
C3021      H3034   1.077       .  S
C3022      C3028   1.432       .  A
C3022      C3023   1.423       .  A
C3023      C3025   1.399       .  A
C3023      C3024   1.406       .  A
C3024      H3035   1.084       .  S
C3025      C3026   1.390       .  A
C3025      H3036   1.084       .  S
C3026      C3027   1.400       .  A
C3026      H3037   1.084       .  S
C3027      C3028   1.421       .  A
C3027      C3032   1.406       .  A
C3028      C3029   1.414       .  A
C3029      C3030   1.398       .  A
C3029      H3038   1.077       .  S
C3030      C3031   1.403       .  A
C3030      H3039   1.081       .  S
C3031      C3032   1.404       .  A
C3032      H3040   1.082       .  S
C3041      C3042   1.401       .  A
C3041      C3046   1.404       .  A
C3042      C3043   1.395       .  A
C3042      H3055   1.081       .  S
C3043      C3044   1.414       .  A
C3043      H3056   1.076       .  S
C3044      C3050   1.429       .  A
C3044      C3045   1.421       .  A
C3045      C3047   1.400       .  A
C3045      C3046   1.405       .  A
C3046      H3057   1.082       .  S
C3047      C3048   1.390       .  A
C3047      H3058   1.084       .  S
C3048      C3049   1.399       .  A
C3048      H3059   1.084       .  S
C3049      C3050   1.423       .  A
C3049      C3054   1.406       .  A
C3050      C3051   1.413       .  A
C3051      C3052   1.393       .  A
C3051      H3060   1.076       .  S
C3052      C3053   1.401       .  A
C3052      H3061   1.083       .  S
C3053      C3054   1.402       .  A
C3054      H3062   1.084       .  S
C3063      C3064   1.401       .  A
C3063      C3068   1.402       .  A
C3064      C3065   1.396       .  A
C3064      H3077   1.083       .  S
C3065      C3066   1.414       .  A
C3065      H3078   1.077       .  S
C3066      C3072   1.430       .  A
C3066      C3067   1.422       .  A
C3067      C3069   1.399       .  A
C3067      C3068   1.405       .  A
C3068      H3079   1.084       .  S
C3069      C3070   1.389       .  A
C3069      H3080   1.084       .  S
C3070      C3071   1.399       .  A
C3070      H3081   1.084       .  S
C3071      C3072   1.422       .  A
C3071      C3076   1.405       .  A
C3072      C3073   1.414       .  A
C3073      C3074   1.396       .  A
C3073      H3082   1.077       .  S
C3074      C3075   1.403       .  A
C3074      H3083   1.081       .  S
C3075      C3076   1.403       .  A
C3076      H3084   1.082       .  S
C3085      C3086   1.401       .  A
C3085      C3090   1.400       .  A
C3086      C3087   1.397       .  A
C3086      H3099   1.083       .  S
C3087      C3088   1.415       .  A
C3087      H3100   1.077       .  S
C3088      C3094   1.430       .  A
C3088      C3089   1.422       .  A
C3089      C3091   1.398       .  A
C3089      C3090   1.401       .  A
C3090      H3101   1.083       .  S
C3091      C3092   1.387       .  A
C3091      H3102   1.084       .  S
C3092      C3093   1.398       .  A
C3092      H3103   1.084       .  S
C3093      C3094   1.423       .  A
C3093      C3098   1.402       .  A
C3094      C3095   1.415       .  A
C3095      C3096   1.397       .  A
C3095      H3104   1.077       .  S
C3096      C3097   1.401       .  A
C3096      H3105   1.083       .  S
C3097      C3098   1.399       .  A
C3098      H3106   1.085       .  S
C3107      C3108   1.402       .  A
C3107      C3112   1.403       .  A
C3108      C3109   1.395       .  A
C3108      H3121   1.081       .  S
C3109      C3110   1.413       .  A
C3109      H3122   1.077       .  S
C3110      C3116   1.428       .  A
C3110      C3111   1.421       .  A
C3111      C3113   1.399       .  A
C3111      C3112   1.402       .  A
C3112      H3123   1.082       .  S
C3113      C3114   1.388       .  A
C3113      H3124   1.084       .  S
C3114      C3115   1.399       .  A
C3114      H3125   1.084       .  S
C3115      C3116   1.422       .  A
C3115      C3120   1.403       .  A
C3116      C3117   1.414       .  A
C3117      C3118   1.394       .  A
C3117      H3126   1.077       .  S
C3118      C3119   1.401       .  A
C3118      H3127   1.083       .  S
C3119      C3120   1.401       .  A
C3120      H3128   1.084       .  S
C3129      C3130   1.400       .  A
C3129      C3134   1.402       .  A
C3130      C3131   1.394       .  A
C3130      H3143   1.082       .  S
C3131      C3132   1.414       .  A
C3131      H3144   1.077       .  S
C3132      C3138   1.429       .  A
C3132      C3133   1.422       .  A
C3133      C3135   1.400       .  A
C3133      C3134   1.405       .  A
C3134      H3145   1.084       .  S
C3135      C3136   1.390       .  A
C3135      H3146   1.084       .  S
C3136      C3137   1.400       .  A
C3136      H3147   1.084       .  S
C3137      C3138   1.423       .  A
C3137      C3142   1.406       .  A
C3138      C3139   1.414       .  A
C3139      C3140   1.393       .  A
C3139      H3148   1.077       .  S
C3140      C3141   1.401       .  A
C3140      H3149   1.083       .  S
C3141      C3142   1.402       .  A
C3142      H3150   1.084       .  S
C3151      C3152   1.401       .  A
C3151      C3156   1.404       .  A
C3152      C3153   1.393       .  A
C3152      H3165   1.081       .  S
C3153      C3154   1.414       .  A
C3153      H3166   1.077       .  S
C3154      C3160   1.426       .  A
C3154      C3155   1.420       .  A
C3155      C3157   1.400       .  A
C3155      C3156   1.403       .  A
C3156      H3167   1.082       .  S
C3157      C3158   1.389       .  A
C3157      H3168   1.084       .  S
C3158      C3159   1.399       .  A
C3158      H3169   1.084       .  S
C3159      C3160   1.422       .  A
C3159      C3164   1.404       .  A
C3160      C3161   1.413       .  A
C3161      C3162   1.392       .  A
C3161      H3170   1.077       .  S
C3162      C3163   1.400       .  A
C3162      H3171   1.083       .  S
C3163      C3164   1.402       .  A
C3164      H3172   1.084       .  S
C3173      C3174   1.400       .  A
C3173      C3178   1.402       .  A
C3174      C3175   1.394       .  A
C3174      H3187   1.083       .  S
C3175      C3176   1.414       .  A
C3175      H3188   1.077       .  S
C3176      C3182   1.428       .  A
C3176      C3177   1.422       .  A
C3177      C3179   1.399       .  A
C3177      C3178   1.404       .  A
C3178      H3189   1.084       .  S
C3179      C3180   1.389       .  A
C3179      H3190   1.084       .  S
C3180      C3181   1.399       .  A
C3180      H3191   1.084       .  S
C3181      C3182   1.421       .  A
C3181      C3186   1.404       .  A
C3182      C3183   1.413       .  A
C3183      C3184   1.393       .  A
C3183      H3192   1.077       .  S
C3184      C3185   1.402       .  A
C3184      H3193   1.081       .  S
C3185      C3186   1.403       .  A
C3186      H3194   1.082       .  S
C3195      C3196   1.400       .  A
C3195      C3200   1.402       .  A
C3196      C3197   1.391       .  A
C3196      H3209   1.083       .  S
C3197      C3198   1.413       .  A
C3197      H3210   1.076       .  S
C3198      C3204   1.427       .  A
C3198      C3199   1.422       .  A
C3199      C3201   1.399       .  A
C3199      C3200   1.405       .  A
C3200      H3211   1.084       .  S
C3201      C3202   1.390       .  A
C3201      H3212   1.084       .  S
C3202      C3203   1.400       .  A
C3202      H3213   1.084       .  S
C3203      C3204   1.421       .  A
C3203      C3208   1.404       .  A
C3204      C3205   1.413       .  A
C3205      C3206   1.392       .  A
C3205      H3214   1.076       .  S
C3206      C3207   1.401       .  A
C3206      H3215   1.081       .  S
C3207      C3208   1.404       .  A
C3208      H3216   1.082       .  S
