geometry optimzed in LAMMPS
_audit_creation_date              2020-12-01 
_audit_creation_method            'lammps2cif' 
_symmetry_space_group_name_H-M    'P1' 
_symmetry_Int_Tables_number       1 
_symmetry_cell_setting            triclinic 
loop_ 
_symmetry_equiv_pos_as_xyz 
  x,y,z 
_cell_length_a                    29.32312976 
_cell_length_b                    29.204717529092996 
_cell_length_c                    29.617001299433856 
_cell_angle_alpha                 89.94105410777479 
_cell_angle_beta                  89.80500369873991 
_cell_angle_gamma                 90.22180628577152 
loop_ 
_atom_site_label 
_atom_site_type_symbol 
_atom_site_fract_x 
_atom_site_fract_y 
_atom_site_fract_z 
_atom_site_charge 
N1          N  0.60125525  0.55637685  0.92167809    -0.07300
N2          N  0.62999533  0.56182385  0.88784179    -0.59400
N3          N  0.57209800  0.59034171  0.02477431    -0.07000
N4          N  0.57851426  0.61882061  0.05870677    -0.61600
N5          N  0.60349323  0.55829045  0.02473627    -0.06600
N6          N  0.63204237  0.56425691  0.05845021    -0.59400
N7          N  0.56971648  0.58824152  0.92111943    -0.06300
N8          N  0.57649269  0.61637070  0.88678743    -0.61900
C9          C  0.61408388  0.59916088  0.86633704     0.94900
C10         C  0.61605667  0.60210182  0.07921728     0.94600
N11         N  0.43415427  0.55727835  0.03037436    -0.07500
N12         N  0.40936881  0.56187827  0.06735626    -0.60000
N13         N  0.46238396  0.58690296  0.92423406    -0.05600
N14         N  0.45625393  0.61341613  0.88874274    -0.61300
N15         N  0.43073376  0.55486427  0.92599817    -0.07500
N16         N  0.40247192  0.55885693  0.89165115    -0.60300
N17         N  0.46578617  0.58932598  0.02843341    -0.05300
N18         N  0.46325226  0.61630743  0.06404560    -0.61400
Mn19       Mn  0.51728655  0.59049960  0.97444470     1.18400
C20         C  0.42788448  0.59884705  0.08791549     0.96900
C21         C  0.41882329  0.59553508  0.86877719     0.97600
N22         N  0.60431694  0.45073169  0.02637311    -0.07600
N23         N  0.63427219  0.44458097  0.05893748    -0.63900
N24         N  0.56922674  0.41819323  0.92372442    -0.06400
N25         N  0.57366698  0.39134210  0.88815066    -0.64500
N26         N  0.60022494  0.45082463  0.92276988    -0.07100
N27         N  0.62605070  0.44726317  0.88657855    -0.64100
N28         N  0.57291543  0.41848253  0.02752465    -0.06000
N29         N  0.58070958  0.38970831  0.06088324    -0.64800
Mn30       Mn  0.60372833  0.50399033  0.97410140     1.10700
C31         C  0.61902213  0.40642277  0.08010225     0.98200
C32         C  0.60935224  0.40999201  0.86540964     0.98200
N33         N  0.43104091  0.44772148  0.92824631    -0.07100
N34         N  0.40334854  0.44172634  0.89367812    -0.62400
N35         N  0.46613530  0.41834408  0.03199041    -0.06400
N36         N  0.46212870  0.39138197  0.06756046    -0.59200
N37         N  0.43446462  0.45017576  0.03263069    -0.07700
N38         N  0.40835658  0.44570285  0.06875826    -0.62000
N39         N  0.46292924  0.41616241  0.92823139    -0.06700
N40         N  0.45761949  0.38795136  0.89395101    -0.59200
Mn41       Mn  0.43067048  0.50254642  0.97937175     1.20200
Mn42       Mn  0.51775192  0.41605124  0.97794649     1.10100
Cl43       Cl  0.51724876  0.50330266  0.97660840    -0.87200
C44         C  0.42031941  0.40419910  0.87286517     0.95200
C45         C  0.42609748  0.40898931  0.09011131     0.95000
N46         N  0.46547297  0.94730175  0.39948953    -0.07300
N47         N  0.46045603  0.91079353  0.37401845    -0.59400
N48         N  0.43386366  0.05297606  0.42747262    -0.07000
N49         N  0.40640150  0.08829446  0.42294878    -0.61600
N50         N  0.46438926  0.05235350  0.39485208    -0.06600
N51         N  0.45820623  0.08714101  0.36713129    -0.59400
N52         N  0.43505822  0.94754642  0.43223103    -0.06300
N53         N  0.40852946  0.91101232  0.42972925    -0.61900
C54         C  0.42491756  0.88863171  0.39318321     0.94900
C55         C  0.42194102  0.10901328  0.38516633     0.94600
N56         N  0.47065974  0.06066165  0.56188926    -0.07500
N57         N  0.46582494  0.09775891  0.58691610    -0.60000
N58         N  0.43804367  0.95342577  0.53788712    -0.05600
N59         N  0.40992129  0.91927260  0.54678008    -0.61300
N60         N  0.47085883  0.95516067  0.56799656    -0.07500
N61         N  0.46601393  0.92205105  0.59798040    -0.60300
N62         N  0.43813297  0.05840764  0.53151281    -0.05300
N63         N  0.41072579  0.09384453  0.53492828    -0.61400
Mn64       Mn  0.43457632  0.00285079  0.48232571     1.18400
C65         C  0.42824616  0.11803573  0.56962160     0.96900
C66         C  0.42783175  0.90022127  0.58426394     0.97600
N67         N  0.57119282  0.05286902  0.39017028    -0.07600
N68         N  0.57601310  0.08638752  0.36061941    -0.63900
N69         N  0.60383528  0.94833190  0.42484005    -0.06400
N70         N  0.63092863  0.91271136  0.41982983    -0.64500
N71         N  0.57123396  0.94744551  0.39446538    -0.07100
N72         N  0.57552189  0.91131014  0.36808938    -0.64100
N73         N  0.60433564  0.05388493  0.41998841    -0.06000
N74         N  0.63257166  0.08805338  0.41132365    -0.64800
Mn75       Mn  0.51794613  0.00009415  0.39307936     1.10700
C76         C  0.61441840  0.10789146  0.37430346     0.98200
C77         C  0.61287126  0.88991442  0.38430515     0.98200
N78         N  0.57745492  0.95520546  0.56338781    -0.07100
N79         N  0.58405097  0.92161043  0.59240841    -0.62400
N80         N  0.60792458  0.05880475  0.52574760    -0.06400
N81         N  0.63627456  0.09380884  0.52946628    -0.59200
N82         N  0.57723976  0.05983185  0.55824310    -0.07700
N83         N  0.58398840  0.09525186  0.58484269    -0.62000
N84         N  0.60778939  0.95351841  0.53056965    -0.06700
N85         N  0.63559567  0.91864371  0.53644202    -0.59200
Mn86       Mn  0.52411669  0.00779980  0.56455451     1.20200
Mn87       Mn  0.60772429  0.00363056  0.47520285     1.10100
Cl88       Cl  0.52114467  0.00356032  0.47880958    -0.87200
C89         C  0.62038264  0.89926085  0.57512363     0.95200
C90         C  0.62075796  0.11602278  0.56647516     0.95000
N91         N  0.96772422  0.55427357  0.38731595    -0.07300
N92         N  0.93238557  0.55783038  0.36017695    -0.59400
N93         N  0.07307239  0.58784363  0.41651940    -0.07000
N94         N  0.10959448  0.61373678  0.41120631    -0.61600
N95         N  0.07287221  0.55441791  0.38674523    -0.06600
N96         N  0.10923916  0.55691050  0.36052232    -0.59400
N97         N  0.96798052  0.58786593  0.41689859    -0.06300
N98         N  0.93288761  0.61515786  0.41042569    -0.61900
C99         C  0.91113674  0.59592947  0.37500800     0.94900
C100        C  0.13170764  0.59412773  0.37612132     0.94600
N101        N  0.07349339  0.56383442  0.55479198    -0.07500
N102        N  0.10742359  0.57182880  0.58281205    -0.60000
N103        N  0.96801593  0.59270234  0.52252764    -0.05600
N104        N  0.93251738  0.61997262  0.52733449    -0.61300
N105        N  0.96893383  0.56224728  0.55527444    -0.07500
N106        N  0.93430457  0.56802088  0.58302078    -0.60300
N107        N  0.07335814  0.59420792  0.52195200    -0.05300
N108        N  0.10745410  0.62346100  0.52677808    -0.61400
Mn109      Mn  0.02057030  0.59246950  0.46928036     1.18400
C110        C  0.12824305  0.60896503  0.56486550     0.96900
C111        C  0.91196527  0.60402988  0.56523802     0.97600
N112        N  0.07230122  0.44794021  0.39179128    -0.07600
N113        N  0.10740939  0.44193135  0.36467236    -0.63900
N114        N  0.96728092  0.41695952  0.42492989    -0.06400
N115        N  0.93318640  0.38780110  0.41951219    -0.64500
N116        N  0.96767880  0.44733761  0.39202438    -0.07100
N117        N  0.93411731  0.43945678  0.36356009    -0.64100
N118        N  0.07236407  0.41727833  0.42437900    -0.06000
N119        N  0.10747575  0.38959005  0.41992212    -0.64800
Mn120      Mn  0.02008145  0.50100158  0.38787917     1.10700
C121        C  0.12898383  0.40539352  0.38250872     0.98200
C122        C  0.91285045  0.40236881  0.38112179     0.98200
N123        N  0.96916978  0.45615495  0.56089032    -0.07100
N124        N  0.93433047  0.45255124  0.58892764    -0.62400
N125        N  0.07373677  0.42286016  0.53018090    -0.06400
N126        N  0.10866426  0.39536649  0.53713600    -0.59200
N127        N  0.07425491  0.45675539  0.55946399    -0.07700
N128        N  0.10949438  0.45319667  0.58678563    -0.62000
N129        N  0.96833146  0.42289316  0.53098586    -0.06700
N130        N  0.93283075  0.39597051  0.53800080    -0.59200
Mn131      Mn  0.02159819  0.50976146  0.55910448     1.20200
Mn132      Mn  0.02033903  0.41818478  0.47779502     1.10100
Cl133      Cl  0.02064377  0.50533022  0.47350185    -0.87200
C134        C  0.91200303  0.41489944  0.57423469     0.95200
C135        C  0.13062669  0.41488642  0.57237323     0.95000
C136        C  0.75604623  0.32179455  0.29462384     0.79000
N137        N  0.73518166  0.28451811  0.31278763    -0.79300
C138        C  0.69691822  0.26712818  0.29365838     0.81500
N139        N  0.67932874  0.28719643  0.25624050    -0.79200
C140        C  0.70011058  0.32442520  0.23767103     0.81600
N141        N  0.73854913  0.34167977  0.25695058    -0.80900
C142        C  0.74623285  0.66923707  0.30096592     0.79000
N143        N  0.72764196  0.65282628  0.26241705    -0.79300
C144        C  0.69029265  0.67308626  0.24452313     0.81500
N145        N  0.67178105  0.71020002  0.26517723    -0.79200
C146        C  0.69022095  0.72683632  0.30391894     0.81600
N147        N  0.72759560  0.70623550  0.32162327    -0.80900
C148        C  0.68903526  0.33489677  0.70376966     0.79000
N149        N  0.67196668  0.29672853  0.68386836    -0.79300
C150        C  0.69182456  0.27993713  0.64596376     0.81500
N151        N  0.72923040  0.30078388  0.62842259    -0.79200
C152        C  0.74692922  0.33844495  0.64863189     0.81600
N153        N  0.72661176  0.35549314  0.68611598    -0.80900
C154        C  0.36347923  0.71823218  0.31884085     0.79000
N155        N  0.32557653  0.69850211  0.33667641    -0.79300
C156        C  0.30666813  0.66129689  0.31672431     0.81500
N157        N  0.32579179  0.64397035  0.27868900    -0.79200
C158        C  0.36362559  0.66369374  0.26049559     0.81600
N159        N  0.38216413  0.70108812  0.28050423    -0.80900
C160        C  0.34471442  0.73851818  0.65665179     0.79000
N161        N  0.36205560  0.71699680  0.69327977    -0.79300
C162        C  0.34229284  0.67809059  0.70913656     0.81500
N163        N  0.30479097  0.66085388  0.68810884    -0.79200
C164        C  0.28740974  0.68248525  0.65135398     0.81600
N165        N  0.30740478  0.72131720  0.63570761    -0.80900
C166        C  0.34634974  0.33049259  0.70874629     0.79000
N167        N  0.36466620  0.29386856  0.68739012    -0.79300
C168        C  0.34606841  0.27810922  0.64849422     0.81500
N169        N  0.30874376  0.29898324  0.63112087    -0.78300
C170        C  0.29014579  0.33550527  0.65251871     0.81600
N171        N  0.30906928  0.35139738  0.69123208    -0.80900
C172        C  0.69934957  0.67999684  0.70998737     0.79000
N173        N  0.73566045  0.66067939  0.68896922    -0.79300
C174        C  0.75251165  0.67911984  0.65029523     0.81500
N175        N  0.73303320  0.71714437  0.63261532    -0.79200
C176        C  0.69696096  0.73687949  0.65365071     0.81600
N177        N  0.68013814  0.71831261  0.69236626    -0.80900
C178        C  0.35200872  0.27535002  0.31029088     0.79000
N179        N  0.37141265  0.29362595  0.27267662    -0.79300
C180        C  0.35342890  0.33184856  0.25380152     0.81500
N181        N  0.31581769  0.35131332  0.27221259    -0.79200
C182        C  0.29586368  0.33255770  0.30928803     0.81600
N183        N  0.31401873  0.29447229  0.32816329    -0.80900
C184        C  0.25367404  0.39558587  0.60521464    -0.03000
C185        C  0.24928769  0.35734521  0.63385988     0.06600
C186        C  0.20584829  0.33913720  0.64367095    -0.03200
C187        C  0.16700792  0.35754538  0.62280264    -0.03200
C188        C  0.17137972  0.39562584  0.59392598     0.06800
C189        C  0.21455665  0.41554639  0.58630616    -0.03400
Br190      Br  0.22012619  0.47003818  0.55002391    -0.01900
Br191      Br  0.31336001  0.41978611  0.59114378    -0.02000
Br192      Br  0.10761582  0.33134490  0.63442212    -0.01900
Br193      Br  0.19959472  0.28987060  0.68666096    -0.01900
C194        C  0.16401059  0.65785720  0.62379070    -0.03000
C195        C  0.16865440  0.63064764  0.58485120     0.06600
C196        C  0.21216336  0.62196727  0.56666024    -0.03200
C197        C  0.25125976  0.63823148  0.58899093    -0.03200
C198        C  0.24667230  0.66444779  0.62863456     0.06800
C199        C  0.20303045  0.67523775  0.64536947    -0.03400
Br200      Br  0.19681665  0.71488647  0.69703518    -0.01900
Br201      Br  0.10407400  0.67243998  0.64656550    -0.02000
Br202      Br  0.31111604  0.62400903  0.56587500    -0.01900
Br203      Br  0.21794177  0.58795030  0.51114264    -0.01900
C204        C  0.21374987  0.58049889  0.35697635    -0.03000
C205        C  0.17602378  0.61034092  0.35885577     0.06600
C206        C  0.18116903  0.65657503  0.34618221    -0.03200
C207        C  0.22412251  0.67337475  0.33298082    -0.03200
C208        C  0.26215445  0.64388242  0.33231039     0.06800
C209        C  0.25687831  0.59743830  0.34418777    -0.03400
Br210      Br  0.30928543  0.55762945  0.34540958    -0.01900
Br211      Br  0.20710962  0.51673231  0.37320578    -0.02000
Br212      Br  0.22998406  0.73645215  0.31383707    -0.01900
Br213      Br  0.12863090  0.69627876  0.34384090    -0.01900
C214        C  0.25020435  0.36204386  0.37425640    -0.03000
C215        C  0.25346722  0.35200005  0.32779833     0.06600
C216        C  0.21556976  0.35915484  0.29940269    -0.03200
C217        C  0.17487374  0.37685312  0.31733537    -0.03200
C218        C  0.17143539  0.38622835  0.36394220     0.06800
C219        C  0.20907816  0.37838061  0.39240883    -0.03400
Br220      Br  0.20553173  0.39179656  0.45610110    -0.01900
Br221      Br  0.30276660  0.35605987  0.41295676    -0.02000
Br222      Br  0.12307561  0.38571100  0.27807561    -0.01900
Br223      Br  0.21793031  0.34210082  0.23637211    -0.01900
C224        C  0.87361204  0.63994424  0.63110428    -0.03000
C225        C  0.87133019  0.62419497  0.58619996     0.06600
C226        C  0.82974599  0.62543100  0.56259944    -0.03200
C227        C  0.79032932  0.64189594  0.58419395    -0.03200
C228        C  0.79293637  0.65908737  0.62858512     0.06800
C229        C  0.83461274  0.65793612  0.65206775    -0.03400
Br230      Br  0.83884623  0.68237198  0.71250115    -0.01900
Br231      Br  0.93066184  0.63853749  0.66353114    -0.02000
Br232      Br  0.73223968  0.63730058  0.55428007    -0.01900
Br233      Br  0.82620736  0.60263608  0.50150227    -0.01900
C234        C  0.83243741  0.42471926  0.60342246    -0.03000
C235        C  0.87041480  0.39625574  0.59538395     0.06600
C236        C  0.86857956  0.34957982  0.60739393    -0.03200
C237        C  0.82827451  0.33086234  0.62537589    -0.03200
C238        C  0.78962617  0.35883108  0.63160741     0.06800
C239        C  0.79216592  0.40606797  0.62181825    -0.03400
Br240      Br  0.74010600  0.44521366  0.63196883    -0.01900
Br241      Br  0.83431673  0.48881943  0.58720702    -0.02000
Br242      Br  0.82733231  0.26739228  0.64413503    -0.01900
Br243      Br  0.92220884  0.31165115  0.60202930    -0.01900
C244        C  0.87739572  0.36091156  0.31639867    -0.03000
C245        C  0.87319905  0.38004808  0.35990731     0.06600
C246        C  0.83071132  0.37924139  0.38225932    -0.03200
C247        C  0.79215932  0.36095360  0.36042658    -0.03200
C248        C  0.79641834  0.34156887  0.31702116     0.06800
C249        C  0.83934788  0.34055589  0.29557984    -0.03400
Br250      Br  0.84681474  0.30864610  0.23914706    -0.01900
Br251      Br  0.93561479  0.36135036  0.28570112    -0.02000
Br252      Br  0.73305191  0.36436727  0.38911314    -0.01900
Br253      Br  0.82493154  0.40482249  0.44206765    -0.01900
C254        C  0.82816509  0.58879155  0.35901925    -0.03000
C255        C  0.86909077  0.61394043  0.35532089     0.06600
C256        C  0.86995611  0.65599016  0.33211452    -0.03200
C257        C  0.83008073  0.67236889  0.31177886    -0.03200
C258        C  0.78845386  0.64916440  0.31845728     0.06800
C259        C  0.78752668  0.60708909  0.34173577    -0.03400
Br260      Br  0.73074940  0.57487124  0.35058076    -0.01900
Br261      Br  0.82761015  0.52996011  0.38884395    -0.02000
Br262      Br  0.83331614  0.72405626  0.27137042    -0.01900
Br263      Br  0.92585113  0.69079548  0.32739806    -0.01900
C264        C  0.65565951  0.23934792  0.58149676    -0.03000
C265        C  0.67439563  0.23794536  0.62518730     0.06600
C266        C  0.67726637  0.19619707  0.64877980    -0.03200
C267        C  0.65981207  0.15605799  0.62931320    -0.03200
C268        C  0.64141052  0.15738271  0.58546419     0.06800
C269        C  0.64001965  0.19881436  0.56120411    -0.03400
Br270      Br  0.61481397  0.20038521  0.50109236    -0.01900
Br271      Br  0.64893539  0.29716610  0.55067709    -0.02000
Br272      Br  0.66195553  0.09906529  0.66240054    -0.01900
Br273      Br  0.70684452  0.19365154  0.70689958    -0.01900
C274        C  0.43330185  0.19970648  0.59488978    -0.03000
C275        C  0.40700287  0.15979405  0.58793767     0.06600
C276        C  0.35996532  0.15980542  0.59840828    -0.03200
C277        C  0.33975653  0.19890506  0.61734372    -0.03200
C278        C  0.36636632  0.23827974  0.62564602     0.06800
C279        C  0.41295607  0.23892375  0.61360563    -0.03400
Br280      Br  0.44849206  0.29431893  0.62080180    -0.01900
Br281      Br  0.49661029  0.20175114  0.57668983    -0.02000
Br282      Br  0.27608307  0.19716746  0.63428492    -0.01900
Br283      Br  0.32315930  0.10548716  0.58946500    -0.01900
C284        C  0.41244915  0.19344169  0.38834545    -0.03000
C285        C  0.40299414  0.15143227  0.36700305     0.06600
C286        C  0.37550503  0.14995463  0.32823574    -0.03200
C287        C  0.35809678  0.19071976  0.31021364    -0.03200
C288        C  0.36988346  0.23298944  0.32979366     0.06800
C289        C  0.39698086  0.23443781  0.36893894    -0.03400
Br290      Br  0.41368424  0.29243763  0.39530422    -0.01900
Br291      Br  0.44584306  0.19460179  0.44444283    -0.02000
Br292      Br  0.31643143  0.18864179  0.26003396    -0.01900
Br293      Br  0.36014623  0.09189830  0.30112327    -0.01900
C294        C  0.63269122  0.22968901  0.33546322    -0.03000
C295        C  0.67506110  0.22618643  0.31317207     0.06600
C296        C  0.69695757  0.18343721  0.31009050    -0.03200
C297        C  0.67688301  0.14450389  0.32995410    -0.03200
C298        C  0.63431656  0.14805230  0.35173376     0.06800
C299        C  0.61168209  0.19038415  0.35345800    -0.03400
Br300      Br  0.55243878  0.19479659  0.38150587    -0.01900
Br301      Br  0.60512617  0.28859210  0.34500681    -0.02000
Br302      Br  0.70677389  0.08588318  0.32603076    -0.01900
Br303      Br  0.75408250  0.17811373  0.27804695    -0.01900
C304        C  0.34791635  0.82325205  0.64945235    -0.03000
C305        C  0.36665617  0.78012625  0.63949248     0.06600
C306        C  0.40679697  0.77677265  0.61358032    -0.03200
C307        C  0.42913459  0.81668180  0.59896213    -0.03200
C308        C  0.40869815  0.85953954  0.60614696     0.06800
C309        C  0.36817281  0.86296629  0.63147998    -0.03400
Br310      Br  0.34118360  0.92212808  0.64221825    -0.01900
Br311      Br  0.29502842  0.82774922  0.68809638    -0.02000
Br312      Br  0.48779515  0.81271136  0.56958877    -0.01900
Br313      Br  0.42918518  0.71767004  0.59518949    -0.01900
C314        C  0.65219801  0.77556922  0.59335732    -0.03000
C315        C  0.67635006  0.77830449  0.63430832     0.06600
C316        C  0.68231149  0.82098838  0.65565646    -0.03200
C317        C  0.66271015  0.86051090  0.63695185    -0.03200
C318        C  0.63999873  0.85788813  0.59523110     0.06800
C319        C  0.63572133  0.81559532  0.57286695    -0.03400
Br320      Br  0.60712283  0.81241470  0.51428878    -0.01900
Br321      Br  0.63940893  0.71685347  0.56656741    -0.02000
Br322      Br  0.66860867  0.91859124  0.66748971    -0.01900
Br323      Br  0.71973930  0.82597108  0.70877148    -0.01900
C324        C  0.60459862  0.80938709  0.35558116    -0.03000
C325        C  0.63253441  0.84780766  0.36458463     0.06600
C326        C  0.67950014  0.84606982  0.35436183    -0.03200
C327        C  0.69844453  0.80629930  0.33538174    -0.03200
C328        C  0.67054926  0.76798361  0.32579893     0.06800
C329        C  0.62357716  0.76957335  0.33640837    -0.03400
Br330      Br  0.58546568  0.71625261  0.32729919    -0.01900
Br331      Br  0.54056991  0.81019565  0.37123188    -0.02000
Br332      Br  0.76252483  0.80601057  0.32079214    -0.01900
Br333      Br  0.71784592  0.89936821  0.36311265    -0.01900
C334        C  0.40787129  0.80544425  0.40194118    -0.03000
C335        C  0.40674331  0.84549683  0.37549446     0.06600
C336        C  0.39197512  0.84368380  0.33038110    -0.03200
C337        C  0.37896386  0.80168682  0.31139235    -0.03200
C338        C  0.38030845  0.76146926  0.33775255     0.06800
C339        C  0.39497625  0.76331231  0.38294864    -0.03400
Br340      Br  0.40026167  0.70770267  0.41782554    -0.01900
Br341      Br  0.42896024  0.80785323  0.46341634    -0.02000
Br342      Br  0.35811232  0.79992769  0.24960609    -0.01900
Br343      Br  0.38741426  0.89928680  0.29523478    -0.01900
C344        C  0.61477088  0.38171950  0.16033493    -0.03000
C345        C  0.64036038  0.38635971  0.12031563     0.06600
C346        C  0.68591588  0.37128561  0.11877906    -0.03200
C347        C  0.70525326  0.35004391  0.15682931    -0.03200
C348        C  0.68012135  0.34657450  0.19743376     0.06800
C349        C  0.63513704  0.36347422  0.19917955    -0.03400
Br350      Br  0.60194680  0.36480894  0.25527293    -0.01900
Br351      Br  0.55195199  0.40145366  0.16249974    -0.02000
Br352      Br  0.76473024  0.32275760  0.15185219    -0.01900
Br353      Br  0.72112792  0.37757885  0.06386101    -0.01900
C354        C  0.65019622  0.66621866  0.12328084    -0.03000
C355        C  0.63501190  0.62046144  0.12124924     0.06600
C356        C  0.63811235  0.59193498  0.15947167    -0.03200
C357        C  0.65554943  0.60945389  0.20001549    -0.03200
C358        C  0.67072363  0.65528609  0.20228061     0.06800
C359        C  0.66854360  0.68349856  0.16365658    -0.03400
Br360      Br  0.69367486  0.74469323  0.16495157    -0.01900
Br361      Br  0.64844815  0.70433570  0.06997356    -0.02000
Br362      Br  0.65688605  0.57071838  0.25271840    -0.01900
Br363      Br  0.61693140  0.52913205  0.15698737    -0.01900
C364        C  0.44287225  0.62133858  0.16810822    -0.03000
C365        C  0.41221288  0.61694255  0.13171497     0.06600
C366        C  0.36631333  0.62982756  0.13719965    -0.03200
C367        C  0.35053298  0.64516553  0.17936113    -0.03200
C368        C  0.38081413  0.64822583  0.21623255     0.06800
C369        C  0.42735926  0.63765293  0.21013251    -0.03400
Br370      Br  0.46996441  0.64459260  0.25934315    -0.01900
Br371      Br  0.50568787  0.60290256  0.16133464    -0.02000
Br372      Br  0.28797225  0.66516292  0.18528734    -0.01900
Br373      Br  0.32560317  0.62952250  0.08608070    -0.01900
C374        C  0.41315445  0.41276181  0.17332831    -0.03000
C375        C  0.40752208  0.38949740  0.13205110     0.06600
C376        C  0.38405730  0.34738157  0.13077187    -0.03200
C377        C  0.36582352  0.32872729  0.17069596    -0.03200
C378        C  0.37305700  0.35102027  0.21220803     0.06800
C379        C  0.39711127  0.39278159  0.21360956    -0.03400
Br380      Br  0.40922287  0.42160631  0.27095035    -0.01900
Br381      Br  0.44257548  0.47195745  0.17468519    -0.02000
Br382      Br  0.32877171  0.27410212  0.16812976    -0.01900
Br383      Br  0.37514699  0.31632144  0.07395438    -0.01900
C384        C  0.65401685  0.66438883  0.82896956    -0.03000
C385        C  0.63658272  0.61948614  0.82669085     0.06600
C386        C  0.64299384  0.59311609  0.78736677    -0.03200
C387        C  0.66425457  0.61267632  0.74931080    -0.03200
C388        C  0.67977820  0.65847854  0.75078642     0.06800
C389        C  0.67601335  0.68368146  0.79121801    -0.03400
Br390      Br  0.70444961  0.74300789  0.79645329    -0.01900
Br391      Br  0.65078211  0.69824663  0.88491284    -0.02000
Br392      Br  0.67085881  0.57673162  0.69495132    -0.01900
Br393      Br  0.62177564  0.53040019  0.78516667    -0.01900
C394        C  0.62073509  0.36164243  0.74727338    -0.03000
C395        C  0.66809301  0.35319031  0.74523990     0.06600
C396        C  0.69593201  0.36378026  0.78258588    -0.03200
C397        C  0.67691509  0.38423633  0.82105760    -0.03200
C398        C  0.62934713  0.39103982  0.82383524     0.06800
C399        C  0.60131933  0.37999486  0.78677184    -0.03400
Br400      Br  0.53688441  0.39355315  0.78842638    -0.01900
Br401      Br  0.58251137  0.35069741  0.69529638    -0.02000
Br402      Br  0.71684003  0.40233092  0.86983239    -0.01900
Br403      Br  0.75980599  0.34733964  0.78289172    -0.01900
C404        C  0.40316310  0.41113463  0.79088600    -0.03000
C405        C  0.40231540  0.38482352  0.83076497     0.06600
C406        C  0.38617903  0.33930027  0.82985598    -0.03200
C407        C  0.36821208  0.32109693  0.78969727    -0.03200
C408        C  0.36738412  0.34813456  0.75025311     0.06800
C409        C  0.38663938  0.39236325  0.75045404    -0.03400
Br410      Br  0.39395953  0.42552587  0.69451208    -0.01900
Br411      Br  0.42911992  0.47201585  0.79103512    -0.02000
Br412      Br  0.34406621  0.25949019  0.78903445    -0.01900
Br413      Br  0.38750952  0.30228197  0.88391154    -0.01900
C414        C  0.40775409  0.64226632  0.75011797    -0.03000
C415        C  0.36138869  0.65519981  0.74934682     0.06600
C416        C  0.33378173  0.64762843  0.78775857    -0.03200
C417        C  0.35212004  0.62650348  0.82632484    -0.03200
C418        C  0.39853714  0.61408149  0.82716390     0.06800
C419        C  0.42619858  0.62158271  0.78882396    -0.03400
Br420      Br  0.48906048  0.60167705  0.78839714    -0.01900
Br421      Br  0.44646957  0.65229514  0.69821552    -0.02000
Br422      Br  0.31403422  0.61727501  0.87892217    -0.01900
Br423      Br  0.27207864  0.67033767  0.78954254    -0.01900
loop_ 
_geom_bond_atom_site_label_1 
_geom_bond_atom_site_label_2 
_geom_bond_distance 
_geom_bond_site_symmetry_2 
_ccdc_geom_bond_type 
N1            N2   1.316       .  A
N1            N7   1.315       .  A
N1          Mn30   2.180       .  S
N2            C9   1.348       .  A
N3            N5   1.315       .  A
N3            N4   1.319       .  A
N3          Mn19   2.196   1_554  S
N4           C10   1.352       .  A
N5            N6   1.316       .  A
N5          Mn30   2.184   1_554  S
N6           C10   1.350       .  A
N7            N8   1.321       .  A
N7          Mn19   2.202       .  S
N8            C9   1.355       .  A
C9          C385   1.469       .  S
C10         C355   1.466       .  S
N11          N17   1.316       .  A
N11          N12   1.320       .  A
N11         Mn41   2.203   1_554  S
N12          C20   1.353       .  A
N13          N14   1.318       .  A
N13          N15   1.316       .  A
N13         Mn19   2.198       .  S
N14          C21   1.352       .  A
N15          N16   1.320       .  A
N15         Mn41   2.197       .  S
N16          C21   1.352       .  A
N17          N18   1.319       .  A
N17         Mn19   2.196   1_554  S
N18          C20   1.351       .  A
Mn19        Cl43   2.547       .  S
C20         C365   1.474       .  S
C21         C418   1.474       .  S
N22          N23   1.319       .  A
N22          N28   1.315       .  A
N22         Mn30   2.194   1_554  S
N23          C31   1.352       .  A
N24          N26   1.315       .  A
N24          N25   1.320       .  A
N24         Mn42   2.201       .  S
N25          C32   1.355       .  A
N26          N27   1.315       .  A
N26         Mn30   2.177       .  S
N27          C32   1.348       .  A
N28          N29   1.318       .  A
N28         Mn42   2.189   1_554  S
N29          C31   1.351       .  A
Mn30        Cl43   2.537       .  S
C31         C345   1.470       .  S
C32         C398   1.471       .  S
N33          N34   1.320       .  A
N33          N39   1.315       .  A
N33         Mn41   2.205       .  S
N34          C44   1.354       .  A
N35          N36   1.319       .  A
N35          N37   1.317       .  A
N35         Mn42   2.200   1_554  S
N36          C45   1.352       .  A
N37          N38   1.320       .  A
N37         Mn41   2.199   1_554  S
N38          C45   1.351       .  A
N39          N40   1.317       .  A
N39         Mn42   2.184       .  S
N40          C44   1.349       .  A
Mn41        Cl43   2.540       .  S
Mn42        Cl43   2.549       .  S
C44         C405   1.469       .  S
C45         C375   1.468       .  S
N46          N47   1.315       .  A
N46          N52   1.315       .  A
N46         Mn75   2.182   1_565  S
N47          C54   1.348       .  A
N48          N50   1.315       .  A
N48          N49   1.318       .  A
N48         Mn64   2.186       .  S
N49          C55   1.349       .  A
N50          N51   1.319       .  A
N50         Mn75   2.195       .  S
N51          C55   1.351       .  A
N52          N53   1.320       .  A
N52         Mn64   2.194   1_565  S
N53          C54   1.353       .  A
C54         C335   1.464       .  S
C55         C285   1.462       .  S
N56          N62   1.315       .  A
N56          N57   1.321       .  A
N56         Mn86   2.206       .  S
N57          C65   1.355       .  A
N58          N59   1.318       .  A
N58          N60   1.315       .  A
N58         Mn64   2.191   1_565  S
N59          C66   1.350       .  A
N60          N61   1.319       .  A
N60         Mn86   2.189   1_565  S
N61          C66   1.350       .  A
N62          N63   1.317       .  A
N62         Mn64   2.184       .  S
N63          C65   1.349       .  A
Mn64        Cl88   2.540       .  S
C65         C275   1.475       .  S
C66         C308   1.462       .  S
N67          N68   1.319       .  A
N67          N73   1.316       .  A
N67         Mn75   2.191       .  S
N68          C76   1.351       .  A
N69          N71   1.315       .  A
N69          N70   1.320       .  A
N69         Mn87   2.202   1_565  S
N70          C77   1.354       .  A
N71          N72   1.320       .  A
N71         Mn75   2.197   1_565  S
N72          C77   1.352       .  A
N73          N74   1.319       .  A
N73         Mn87   2.199       .  S
N74          C76   1.351       .  A
Mn75        Cl88   2.543       .  S
C76         C298   1.467       .  S
C77         C325   1.480       .  S
N78          N79   1.319       .  A
N78          N84   1.316       .  A
N78         Mn86   2.197   1_565  S
N79          C89   1.351       .  A
N80          N81   1.320       .  A
N80          N82   1.316       .  A
N80         Mn87   2.201       .  S
N81          C90   1.353       .  A
N82          N83   1.316       .  A
N82         Mn86   2.179       .  S
N83          C90   1.348       .  A
N84          N85   1.319       .  A
N84         Mn87   2.197   1_565  S
N85          C89   1.351       .  A
Mn86        Cl88   2.544       .  S
Mn87        Cl88   2.541       .  S
C89         C318   1.467       .  S
C90         C268   1.463       .  S
N91          N92   1.318       .  A
N91          N97   1.316       .  A
N91        Mn120   2.190   1_655  S
N92          C99   1.350       .  A
N93          N95   1.316       .  A
N93          N94   1.318       .  A
N93        Mn109   2.195       .  S
N94         C100   1.352       .  A
N95          N96   1.319       .  A
N95        Mn120   2.194       .  S
N96         C100   1.351       .  A
N97          N98   1.318       .  A
N97        Mn109   2.195   1_655  S
N98          C99   1.351       .  A
C99         C255   1.465       .  S
C100        C205   1.471       .  S
N101        N107   1.316       .  A
N101        N102   1.318       .  A
N101       Mn131   2.192       .  S
N102        C110   1.350       .  A
N103        N104   1.321       .  A
N103        N105   1.316       .  A
N103       Mn109   2.201   1_655  S
N104        C111   1.354       .  A
N105        N106   1.316       .  A
N105       Mn131   2.183   1_655  S
N106        C111   1.349       .  A
N107        N108   1.321       .  A
N107       Mn109   2.202       .  S
N108        C110   1.352       .  A
Mn109      Cl133   2.548       .  S
C110        C195   1.468       .  S
C111        C225   1.467       .  S
N112        N113   1.316       .  A
N112        N118   1.316       .  A
N112       Mn120   2.186       .  S
N113        C121   1.351       .  A
N114        N116   1.317       .  A
N114        N115   1.321       .  A
N114       Mn132   2.211   1_655  S
N115        C122   1.355       .  A
N116        N117   1.318       .  A
N116       Mn120   2.194   1_655  S
N117        C122   1.351       .  A
N118        N119   1.318       .  A
N118       Mn132   2.194       .  S
N119        C121   1.353       .  A
Mn120      Cl133   2.539       .  S
C121        C218   1.472       .  S
C122        C245   1.474       .  S
N123        N124   1.318       .  A
N123        N129   1.315       .  A
N123       Mn131   2.190   1_655  S
N124        C134   1.351       .  A
N125        N126   1.320       .  A
N125        N127   1.317       .  A
N125       Mn132   2.212       .  S
N126        C135   1.353       .  A
N127        N128   1.319       .  A
N127       Mn131   2.191       .  S
N128        C135   1.350       .  A
N129        N130   1.318       .  A
N129       Mn132   2.194   1_655  S
N130        C134   1.353       .  A
Mn131      Cl133   2.539       .  S
Mn132      Cl133   2.548       .  S
C134        C235   1.471       .  S
C135        C188   1.470       .  S
C136        N137   1.357       .  A
C136        N141   1.360       .  A
C136        C248   1.475       .  S
N137        C138   1.356       .  A
C138        N139   1.357       .  A
C138        C295   1.471       .  S
N139        C140   1.359       .  A
C140        N141   1.361       .  A
C140        C348   1.479       .  S
C142        N143   1.354       .  A
C142        N147   1.358       .  A
C142        C258   1.468       .  S
N143        C144   1.356       .  A
C144        N145   1.359       .  A
C144        C358   1.473       .  S
N145        C146   1.360       .  A
C146        N147   1.359       .  A
C146        C328   1.484       .  S
C148        N149   1.356       .  A
C148        N153   1.356       .  A
C148        C395   1.473       .  S
N149        C150   1.356       .  A
C150        N151   1.354       .  A
C150        C265   1.464       .  S
N151        C152   1.355       .  A
C152        N153   1.354       .  A
C152        C238   1.472       .  S
C154        N155   1.355       .  A
C154        N159   1.356       .  A
C154        C338   1.466       .  S
N155        C156   1.355       .  A
C156        N157   1.356       .  A
C156        C208   1.472       .  S
N157        C158   1.358       .  A
C158        N159   1.356       .  A
C158        C368   1.475       .  S
C160        N161   1.355       .  A
C160        N165   1.355       .  A
C160        C305   1.463       .  S
N161        C162   1.356       .  A
C162        N163   1.361       .  A
C162        C415   1.478       .  S
N163        C164   1.360       .  A
C164        N165   1.355       .  A
C164        C198   1.469       .  S
C166        N167   1.355       .  A
C166        N171   1.358       .  A
C166        C408   1.470       .  S
N167        C168   1.356       .  A
C168        N169   1.357       .  A
C168        C278   1.473       .  S
N169        C170   1.357       .  A
C170        N171   1.357       .  A
C170        C185   1.469       .  S
C172        N173   1.357       .  A
C172        N177   1.359       .  A
C172        C388   1.475       .  S
N173        C174   1.356       .  A
C174        N175   1.356       .  A
C174        C228   1.470       .  S
N175        C176   1.357       .  A
C176        N177   1.358       .  A
C176        C315   1.471       .  S
C178        N179   1.357       .  A
C178        N183   1.354       .  A
C178        C288   1.464       .  S
N179        C180   1.357       .  A
C180        N181   1.356       .  A
C180        C378   1.467       .  S
N181        C182   1.356       .  A
C182        N183   1.356       .  A
C182        C215   1.473       .  S
C184        C185   1.407       .  A
C184        C189   1.406       .  A
C184       Br191   1.929       .  S
C185        C186   1.408       .  A
C186        C187   1.406       .  A
C186       Br193   1.928       .  S
C187        C188   1.407       .  A
C187       Br192   1.929       .  S
C188        C189   1.409       .  A
C189       Br190   1.925       .  S
C194        C195   1.408       .  A
C194        C199   1.406       .  A
C194       Br201   1.930       .  S
C195        C196   1.407       .  A
C196        C197   1.407       .  A
C196       Br203   1.929       .  S
C197        C198   1.409       .  A
C197       Br202   1.929       .  S
C198        C199   1.408       .  A
C199       Br200   1.928       .  S
C204        C205   1.412       .  A
C204        C209   1.407       .  A
C204       Br211   1.932       .  S
C205        C206   1.408       .  A
C206        C207   1.404       .  A
C206       Br213   1.933       .  S
C207        C208   1.412       .  A
C207       Br212   1.934       .  S
C208        C209   1.409       .  A
C209       Br210   1.931       .  S
C214        C215   1.410       .  A
C214        C219   1.404       .  A
C214       Br221   1.932       .  S
C215        C216   1.412       .  A
C216        C217   1.405       .  A
C216       Br223   1.934       .  S
C217        C218   1.411       .  A
C217       Br222   1.934       .  S
C218        C219   1.411       .  A
C219       Br220   1.930       .  S
C224        C225   1.409       .  A
C224        C229   1.404       .  A
C224       Br231   1.932       .  S
C225        C226   1.408       .  A
C226        C227   1.406       .  A
C226       Br233   1.932       .  S
C227        C228   1.410       .  A
C227       Br232   1.927       .  S
C228        C229   1.409       .  A
C229       Br230   1.932       .  S
C234        C235   1.412       .  A
C234        C239   1.406       .  A
C234       Br241   1.933       .  S
C235        C236   1.409       .  A
C236        C237   1.403       .  A
C236       Br243   1.933       .  S
C237        C238   1.411       .  A
C237       Br242   1.935       .  S
C238        C239   1.411       .  A
C239       Br240   1.934       .  S
C244        C245   1.410       .  A
C244        C249   1.407       .  A
C244       Br251   1.931       .  S
C245        C246   1.409       .  A
C246        C247   1.408       .  A
C246       Br253   1.930       .  S
C247        C248   1.411       .  A
C247       Br252   1.931       .  S
C248        C249   1.408       .  A
C249       Br250   1.927       .  S
C254        C255   1.408       .  A
C254        C259   1.406       .  A
C254       Br261   1.931       .  S
C255        C256   1.407       .  A
C256        C257   1.403       .  A
C256       Br263   1.930       .  S
C257        C258   1.407       .  A
C257       Br262   1.927       .  S
C258        C259   1.409       .  A
C259       Br260   1.926       .  S
C264        C265   1.408       .  A
C264        C269   1.404       .  A
C264       Br271   1.930       .  S
C265        C266   1.408       .  A
C266        C267   1.403       .  A
C266       Br273   1.932       .  S
C267        C268   1.409       .  A
C267       Br272   1.932       .  S
C268        C269   1.407       .  A
C269       Br270   1.931       .  S
C274        C275   1.411       .  A
C274        C279   1.407       .  A
C274       Br281   1.932       .  S
C275        C276   1.413       .  A
C276        C277   1.405       .  A
C276       Br283   1.934       .  S
C277        C278   1.409       .  A
C277       Br282   1.932       .  S
C278        C279   1.411       .  A
C279       Br280   1.933       .  S
C284        C285   1.408       .  A
C284        C289   1.405       .  A
C284       Br291   1.932       .  S
C285        C286   1.406       .  A
C286        C287   1.403       .  A
C286       Br293   1.929       .  S
C287        C288   1.407       .  A
C287       Br292   1.928       .  S
C288        C289   1.408       .  A
C289       Br290   1.928       .  S
C294        C295   1.409       .  A
C294        C299   1.404       .  A
C294       Br301   1.924       .  S
C295        C296   1.409       .  A
C296        C297   1.406       .  A
C296       Br303   1.929       .  S
C297        C298   1.407       .  A
C297       Br302   1.930       .  S
C298        C299   1.406       .  A
C299       Br300   1.928       .  S
C304        C305   1.407       .  A
C304        C309   1.405       .  A
C304       Br311   1.929       .  S
C305        C306   1.407       .  A
C306        C307   1.402       .  A
C306       Br313   1.928       .  S
C307        C308   1.406       .  A
C307       Br312   1.929       .  S
C308        C309   1.407       .  A
C309       Br310   1.929       .  S
C314        C315   1.409       .  A
C314        C319   1.405       .  A
C314       Br321   1.926       .  S
C315        C316   1.409       .  A
C316        C317   1.406       .  A
C316       Br323   1.926       .  S
C317        C318   1.408       .  A
C317       Br322   1.931       .  S
C318        C319   1.408       .  A
C319       Br320   1.932       .  S
C324        C325   1.413       .  A
C324        C329   1.410       .  A
C324       Br331   1.933       .  S
C325        C326   1.410       .  A
C326        C327   1.406       .  A
C326       Br333   1.935       .  S
C327        C328   1.413       .  A
C327       Br332   1.927       .  S
C328        C329   1.413       .  A
C329       Br330   1.933       .  S
C334        C335   1.408       .  A
C334        C339   1.405       .  A
C334       Br341   1.926       .  S
C335        C336   1.407       .  A
C336        C337   1.402       .  A
C336       Br343   1.933       .  S
C337        C338   1.410       .  A
C337       Br342   1.932       .  S
C338        C339   1.408       .  A
C339       Br340   1.931       .  S
C344        C345   1.407       .  A
C344        C349   1.404       .  A
C344       Br351   1.933       .  S
C345        C346   1.409       .  A
C346        C347   1.408       .  A
C346       Br353   1.932       .  S
C347        C348   1.412       .  A
C347       Br352   1.926       .  S
C348        C349   1.411       .  A
C349       Br350   1.923       .  S
C354        C355   1.408       .  A
C354        C359   1.406       .  A
C354       Br361   1.932       .  S
C355        C356   1.408       .  A
C356        C357   1.403       .  A
C356       Br363   1.936       .  S
C357        C358   1.411       .  A
C357       Br362   1.927       .  S
C358        C359   1.411       .  A
C359       Br360   1.931       .  S
C364        C365   1.412       .  A
C364        C369   1.408       .  A
C364       Br371   1.931       .  S
C365        C366   1.408       .  A
C366        C367   1.405       .  A
C366       Br373   1.931       .  S
C367        C368   1.412       .  A
C367       Br372   1.935       .  S
C368        C369   1.412       .  A
C369       Br370   1.933       .  S
C374        C375   1.409       .  A
C374        C379   1.406       .  A
C374       Br381   1.930       .  S
C375        C376   1.408       .  A
C376        C377   1.405       .  A
C376       Br383   1.931       .  S
C377        C378   1.408       .  A
C377       Br382   1.928       .  S
C378        C379   1.407       .  A
C379       Br380   1.930       .  S
C384        C385   1.407       .  A
C384        C389   1.405       .  A
C384       Br391   1.933       .  S
C385        C386   1.409       .  A
C386        C387   1.406       .  A
C386       Br393   1.933       .  S
C387        C388   1.412       .  A
C387       Br392   1.932       .  S
C388        C389   1.410       .  A
C389       Br390   1.927       .  S
C394        C395   1.412       .  A
C394        C399   1.407       .  A
C394       Br401   1.933       .  S
C395        C396   1.411       .  A
C396        C397   1.402       .  A
C396       Br403   1.935       .  S
C397        C398   1.412       .  A
C397       Br402   1.935       .  S
C398        C399   1.410       .  A
C399       Br400   1.932       .  S
C404        C405   1.408       .  A
C404        C409   1.404       .  A
C404       Br411   1.931       .  S
C405        C406   1.410       .  A
C406        C407   1.406       .  A
C406       Br413   1.931       .  S
C407        C408   1.410       .  A
C407       Br412   1.931       .  S
C408        C409   1.408       .  A
C409       Br410   1.929       .  S
C414        C415   1.413       .  A
C414        C419   1.406       .  A
C414       Br421   1.929       .  S
C415        C416   1.411       .  A
C416        C417   1.407       .  A
C416       Br423   1.930       .  S
C417        C418   1.410       .  A
C417       Br422   1.932       .  S
C418        C419   1.410       .  A
C419       Br420   1.935       .  S
