geometry optimzed in LAMMPS
_audit_creation_date              2020-12-01 
_audit_creation_method            'lammps2cif' 
_symmetry_space_group_name_H-M    'P1' 
_symmetry_Int_Tables_number       1 
_symmetry_cell_setting            triclinic 
loop_ 
_symmetry_equiv_pos_as_xyz 
  x,y,z 
_cell_length_a                    37.82022545 
_cell_length_b                    37.95440886582979 
_cell_length_c                    37.38624590078092 
_cell_angle_alpha                 89.8783255498849 
_cell_angle_beta                  90.90571183220625 
_cell_angle_gamma                 89.67456334359616 
loop_ 
_atom_site_label 
_atom_site_type_symbol 
_atom_site_fract_x 
_atom_site_fract_y 
_atom_site_fract_z 
_atom_site_charge 
C1          C  0.69701616  0.64862646  0.81466912     0.82100
N2          N  0.71406979  0.66280786  0.84370212    -0.76200
C3          C  0.70150269  0.69312719  0.85861527     0.84500
N4          N  0.67233440  0.70892198  0.84413219    -0.76200
C5          C  0.65556805  0.69512663  0.81525666     0.84600
N6          N  0.66796506  0.66501267  0.80062180    -0.77900
C7          C  0.66730077  0.85469306  0.66379363     0.82100
N8          N  0.67734537  0.83557546  0.63495336    -0.76200
C9          C  0.70685178  0.84391962  0.61666076     0.84500
N10         N  0.72686211  0.87180925  0.62750624    -0.76200
C11         C  0.71721503  0.89127010  0.65636378     0.84600
N12         N  0.68746287  0.88238228  0.67448952    -0.77900
C13         C  0.85979827  0.68750094  0.61934521     0.82100
N14         N  0.88886745  0.70424208  0.63331698    -0.76200
C15         C  0.90505157  0.69109998  0.66357628     0.84500
N16         N  0.89202286  0.66170614  0.67932395    -0.76200
C17         C  0.86309087  0.64533481  0.66580639     0.84600
N18         N  0.84709108  0.65844926  0.63595583    -0.77900
C19         C  0.86070449  0.85444053  0.86930359     0.82100
N20         N  0.88975242  0.83791250  0.85668577    -0.76200
C21         C  0.90680122  0.85060549  0.82792923     0.84500
N22         N  0.89442870  0.88036660  0.81145106    -0.76200
C23         C  0.86524738  0.89740500  0.82381342     0.84600
N24         N  0.84826900  0.88418831  0.85274863    -0.77900
O25         O  0.80413685  0.80128983  0.95229791    -0.71100
O26         O  0.74705157  0.74827695  0.02490305    -0.72100
O27         O  0.75286585  0.74681935  0.94872763    -0.60700
O28         O  0.79970325  0.80138467  0.02820362    -0.69100
O29         O  0.75773275  0.84239980  0.02463300    -0.68700
O30         O  0.71090369  0.78782246  0.94470374    -0.59900
O31         O  0.70534008  0.78950274  0.02045876    -0.72400
O32         O  0.76193078  0.84208716  0.94882741    -0.71200
Cu33       Cu  0.77743374  0.77298656  0.98867125     1.04600
Cu34       Cu  0.73251509  0.81682922  0.98449810     1.04300
C35         C  0.79177177  0.83007543  0.93906476     0.95100
C36         C  0.71718096  0.76101032  0.03433918     0.94200
C37         C  0.72460197  0.75887009  0.93399818     0.86400
C38         C  0.78617760  0.83027303  0.03908516     0.92600
O39         O  0.06647499  0.77734115  0.78762373    -0.71100
O40         O  0.98937935  0.73859175  0.72385518    -0.72100
O41         O  0.06458038  0.72951443  0.72914407    -0.60700
O42         O  0.99124937  0.78805288  0.78130072    -0.69100
O43         O  0.99946127  0.83160011  0.74266696    -0.68700
O44         O  0.06918352  0.77352961  0.69031883    -0.59900
O45         O  0.99468238  0.78272479  0.68544258    -0.72400
O46         O  0.07409146  0.82064922  0.74866498    -0.71200
Cu47       Cu  0.02758204  0.75682661  0.75688424     1.04600
Cu48       Cu  0.03463582  0.80364128  0.71554774     1.04300
C49         C  0.08309969  0.80475105  0.77777897     0.95100
C50         C  0.97960697  0.75416116  0.69493247     0.94200
C51         C  0.07840716  0.74298689  0.70124206     0.86400
C52         C  0.98373610  0.81908351  0.76968502     0.92600
O53         O  0.82805487  0.06163891  0.75628408    -0.71100
O54         O  0.77997472  0.98119786  0.70057602    -0.72100
O55         O  0.78587841  0.05684196  0.69232745    -0.60700
O56         O  0.82524306  0.98567040  0.76220902    -0.69100
O57         O  0.77835657  0.99090605  0.79665201    -0.68700
O58         O  0.73845104  0.06357701  0.72575225    -0.59900
O59         O  0.73368185  0.98924372  0.73537666    -0.72400
O60         O  0.78034927  0.06616692  0.78971527    -0.71200
Cu61       Cu  0.80655856  0.02115300  0.72669930     1.04600
Cu62       Cu  0.75615588  0.02771747  0.76298769     1.04300
C63         C  0.81102307  0.07676414  0.78158464     0.95100
C64         C  0.74873569  0.97261558  0.71029171     0.94200
C65         C  0.75615804  0.07166958  0.69785259     0.86400
C66         C  0.80808745  0.97620868  0.78971579     0.92600
C67         C  0.68294347  0.65287771  0.15139939     0.82100
N68         N  0.69943623  0.66789940  0.12327967    -0.76200
C69         C  0.68707707  0.69829388  0.10857748     0.84500
N70         N  0.65791407  0.71408984  0.12239337    -0.76200
C71         C  0.64105095  0.69933602  0.15054814     0.84600
N72         N  0.65379520  0.66872595  0.16503226    -0.77900
C73         C  0.64638475  0.18105073  0.64938857     0.82100
N74         N  0.66260617  0.15289254  0.66440985    -0.76200
C75         C  0.69421021  0.14115022  0.65276971     0.84500
N76         N  0.70996784  0.15793130  0.62457850    -0.76200
C77         C  0.69314049  0.18639897  0.60881836     0.84600
N78         N  0.66175182  0.19780327  0.62181015    -0.77900
C79         C  0.15445849  0.68279725  0.67174837     0.82100
N80         N  0.16401469  0.69909795  0.64101930    -0.76200
C81         C  0.19277430  0.68833968  0.62281328     0.84500
N82         N  0.21248514  0.66090926  0.63565038    -0.76200
C83         C  0.20331943  0.64434612  0.66643394     0.84600
N84         N  0.17430296  0.65546166  0.68449297    -0.77900
C85         C  0.89078244  0.68126490  0.30246137     0.82100
N86         N  0.88121288  0.69767436  0.33315953    -0.76200
C87         C  0.85329957  0.68583817  0.35229981     0.84500
N88         N  0.83451988  0.65752582  0.34021136    -0.76200
C89         C  0.84396044  0.64097142  0.30946522     0.84600
N90         N  0.87205476  0.65309205  0.29092060    -0.77900
O91         O  0.98327553  0.76489047  0.27518530    -0.71100
O92         O  0.05937100  0.80642340  0.21473000    -0.72100
O93         O  0.98382899  0.81331597  0.21705498    -0.60700
O94         O  0.05830647  0.75668894  0.27167609    -0.69100
O95         O  0.05054523  0.71314550  0.23282110    -0.68700
O96         O  0.97890280  0.76925044  0.17836596    -0.59900
O97         O  0.05368910  0.76238353  0.17617187    -0.72400
O98         O  0.97589631  0.72120051  0.23649549    -0.71200
Cu99       Cu  0.02139954  0.78692729  0.24601919     1.04600
Cu100      Cu  0.01452459  0.74002935  0.20462970     1.04300
C101        C  0.96743221  0.73680241  0.26552851     0.95100
C102        C  0.06903489  0.79072303  0.18629609     0.94200
C103        C  0.96949909  0.79965269  0.18909930     0.86400
C104        C  0.06612159  0.72583009  0.26031149     0.92600
C105        C  0.84842713  0.85708865  0.11679290     0.82100
N106        N  0.87877937  0.84490298  0.13244136    -0.76200
C107        C  0.89199452  0.86036154  0.16266850     0.84500
N108        N  0.87438848  0.88786647  0.17740964    -0.76200
C109        C  0.84406441  0.90015538  0.16183906     0.84600
N110        N  0.83125236  0.88470793  0.13168840    -0.77900
C111        C  0.68010247  0.88383272  0.31774364     0.82100
N112        N  0.70023822  0.86934032  0.34426585    -0.76200
C113        C  0.68977112  0.83963682  0.36131521     0.84500
N114        N  0.65858092  0.82395856  0.35137117    -0.76200
C115        C  0.63828496  0.83886649  0.32468050     0.84600
N116        N  0.64938129  0.86849971  0.30821236    -0.77900
O117        O  0.74293397  0.05567360  0.29153493    -0.71100
O118        O  0.81414416  0.98526241  0.25436941    -0.72100
O119        O  0.80149177  0.05822547  0.24578229    -0.60700
O120        O  0.75706727  0.98260734  0.30209211    -0.69100
O121        O  0.72064593  0.97072770  0.25656298    -0.68700
O122        O  0.76542069  0.04854366  0.19939914    -0.59900
O123        O  0.77724896  0.97568064  0.20874199    -0.72400
O124        O  0.70720480  0.04357836  0.24551802    -0.71200
Cu125      Cu  0.78008882  0.02088759  0.27514667     1.04600
Cu126      Cu  0.74130372  0.00919116  0.22601977     1.04300
C127        C  0.71412700  0.06102096  0.27373684     0.95100
C128        C  0.80648101  0.96949979  0.22506803     0.94200
C129        C  0.79102686  0.06538505  0.21406406     0.86400
C130        C  0.73242785  0.96422422  0.28823084     0.92600
C131        C  0.35016513  0.85105591  0.61237915     0.82100
N132        N  0.38092908  0.83472135  0.62156703    -0.76200
C133        C  0.40163578  0.84746965  0.64841975     0.84500
N134        N  0.39133726  0.87690401  0.66650746    -0.76200
C135        C  0.36060831  0.89362071  0.65719797     0.84600
N136        N  0.34018959  0.88034384  0.63022680    -0.77900
O137        O  0.25703229  0.06603614  0.75621460    -0.71100
O138        O  0.31399124  0.98555071  0.71273143    -0.72100
O139        O  0.31688409  0.06033535  0.71144092    -0.60700
O140        O  0.25595086  0.99135994  0.75925497    -0.69100
O141        O  0.21899162  0.99006422  0.71257650    -0.68700
O142        O  0.28044836  0.06219021  0.66426880    -0.59900
O143        O  0.27698837  0.98767248  0.66606873    -0.72400
O144        O  0.22086747  0.06470780  0.70889631    -0.71200
Cu145      Cu  0.28724517  0.02587736  0.73660053     1.04600
Cu146      Cu  0.24808151  0.02617849  0.68630447     1.04300
C147        C  0.22978295  0.07778730  0.73898837     0.95100
C148        C  0.30366605  0.97401149  0.68212386     0.94200
C149        C  0.30849052  0.07248559  0.68072345     0.86400
C150        C  0.22841156  0.97920057  0.74373781     0.92600
C151        C  0.20461521  0.90664159  0.80963864     0.82100
N152        N  0.22077545  0.89199508  0.83857797    -0.76200
C153        C  0.20877823  0.86159642  0.85298275     0.84500
N154        N  0.17969071  0.84552390  0.83798189    -0.76200
C155        C  0.16322104  0.86059774  0.80872240     0.84600
N156        N  0.17609616  0.89080173  0.79484344    -0.77900
C157        C  0.36566646  0.68649959  0.86103464     0.82100
N158        N  0.35689450  0.65616654  0.84418561    -0.76200
C159        C  0.37483267  0.64512888  0.81504099     0.84500
N160        N  0.40174218  0.66506296  0.80250217    -0.76200
C161        C  0.41110839  0.69556260  0.81932579     0.84600
N162        N  0.39288561  0.70615510  0.84852384    -0.77900
O163        O  0.29894997  0.72862724  0.94624234    -0.71100
O164        O  0.23832830  0.77836545  0.02064190    -0.72100
O165        O  0.23771378  0.77313589  0.94396137    -0.60700
O166        O  0.29730294  0.73158516  0.02274452    -0.69100
O167        O  0.33343182  0.77732753  0.02288980    -0.68700
O168        O  0.27331050  0.81922895  0.94102633    -0.59900
O169        O  0.27472568  0.82385652  0.01704298    -0.72400
O170        O  0.33430287  0.77509129  0.94652947    -0.71200
Cu171      Cu  0.26683179  0.75127434  0.98341505     1.04600
Cu172      Cu  0.30515188  0.80044809  0.98174955     1.04300
C173        C  0.32638409  0.74466710  0.93483817     0.95100
C174        C  0.24787795  0.80926656  0.03060941     0.94200
C175        C  0.24587471  0.80247006  0.92978456     0.86400
C176        C  0.32406510  0.74757842  0.03593521     0.92600
C177        C  0.83883915  0.35852174  0.59767801     0.82100
N178        N  0.87037399  0.34294700  0.60640282    -0.76200
C179        C  0.89070974  0.35573400  0.63354553     0.84500
N180        N  0.87926571  0.38403218  0.65218205    -0.76200
C181        C  0.84794180  0.39969959  0.64414563     0.84600
N182        N  0.82749593  0.38681805  0.61686750    -0.77900
O183        O  0.06413868  0.33829141  0.70822119    -0.71100
O184        O  0.99138257  0.29661899  0.77226546    -0.72100
O185        O  0.06553503  0.29036495  0.76595403    -0.60700
O186        O  0.98989956  0.34439779  0.71426936    -0.69100
O187        O  0.98226417  0.29985285  0.67654502    -0.68700
O188        O  0.06006195  0.24603207  0.72760015    -0.59900
O189        O  0.98559469  0.25176778  0.73465475    -0.72400
O190        O  0.05684574  0.29432611  0.66974584    -0.71200
Cu191      Cu  0.02800614  0.31898202  0.74143382     1.04600
Cu192      Cu  0.02092403  0.27143165  0.70074467     1.04300
C193        C  0.07213976  0.32281093  0.67910597     0.95100
C194        C  0.97709331  0.26743630  0.76355786     0.97400
C195        C  0.07488985  0.25992640  0.75504705     0.86400
C196        C  0.97375171  0.33054181  0.68764752     0.92600
C197        C  0.86771016  0.15773712  0.80683133     0.82100
N198        N  0.89513062  0.17295613  0.79007328    -0.76200
C199        C  0.90788020  0.20442176  0.80074133     0.84500
N200        N  0.89311766  0.22108476  0.82894845    -0.76200
C201        C  0.86555992  0.20644171  0.84648109     0.84600
N202        N  0.85251111  0.17459186  0.83519952    -0.77900
C203        C  0.68336809  0.39436649  0.80298697     0.82100
N204        N  0.69871785  0.37794280  0.83182670    -0.76200
C205        C  0.68434352  0.34768928  0.84496370     0.84500
N206        N  0.65515468  0.33385879  0.82882398    -0.76200
C207        C  0.63996203  0.35012019  0.80010036     0.84600
N208        N  0.65406841  0.38031074  0.78751286    -0.77900
O209        O  0.77587998  0.32728017  0.93508093    -0.71100
O210        O  0.82409702  0.27010948  0.01201698    -0.72100
O211        O  0.82231860  0.26776705  0.93513178    -0.60700
O212        O  0.77598663  0.32845221  0.01183933    -0.69100
O213        O  0.73035180  0.29210096  0.01193236    -0.68700
O214        O  0.77666794  0.23149012  0.93699173    -0.59900
O215        O  0.77834604  0.23385462  0.01357274    -0.72400
O216        O  0.73021806  0.29084755  0.93512871    -0.71200
Cu217      Cu  0.80116801  0.29965753  0.97350116     1.04600
Cu218      Cu  0.75233058  0.26083506  0.97443748     1.04300
C219        C  0.74580741  0.31797688  0.92256943     0.95100
C220        C  0.80886291  0.24330754  0.02528012     0.94200
C221        C  0.80637596  0.24006117  0.92384006     0.86400
C222        C  0.74579982  0.31957278  0.02406407     0.92600
C223        C  0.68009165  0.39898269  0.13913739     0.82100
N224        N  0.69573271  0.38198376  0.11132876    -0.76200
C225        C  0.68109803  0.35198202  0.09763781     0.84500
N226        N  0.65085932  0.33914986  0.11227186    -0.76200
C227        C  0.63527068  0.35610109  0.14012237     0.84600
N228        N  0.65017517  0.38577849  0.15324899    -0.77900
C229        C  0.38648847  0.67990257  0.16344518     0.82100
N230        N  0.36893622  0.65128369  0.17543702    -0.76200
C231        C  0.34024870  0.63880458  0.15756460     0.84500
N232        N  0.32910846  0.65525884  0.12715244    -0.76200
C233        C  0.34633394  0.68402779  0.11454640     0.84600
N234        N  0.37510562  0.69657764  0.13289750    -0.77900
C235        C  0.66707662  0.19483555  0.35023804     0.82100
N236        N  0.64097463  0.20548836  0.32687239    -0.76200
C237        C  0.63144201  0.18439994  0.29859828     0.84500
N238        N  0.64842482  0.15313570  0.29390357    -0.76200
C239        C  0.67435147  0.14258213  0.31714733     0.84600
N240        N  0.68339456  0.16347442  0.34485243    -0.77900
C241        C  0.33925366  0.20184179  0.34450022     0.82100
N242        N  0.32534268  0.17120590  0.33219308    -0.76200
C243        C  0.33991825  0.15440975  0.30373772     0.84500
N244        N  0.36856627  0.16889163  0.28731726    -0.76200
C245        C  0.38239957  0.19984824  0.29984739     0.84600
N246        N  0.36758637  0.21574197  0.32825592    -0.77900
C247        C  0.19702299  0.88454909  0.15020675     0.82100
N248        N  0.16757970  0.87376466  0.16763121    -0.76200
C249        C  0.14918060  0.84510856  0.15580324     0.84500
N250        N  0.16063017  0.82710072  0.12668725    -0.76200
C251        C  0.18981957  0.83772755  0.10912257     0.84600
N252        N  0.20780706  0.86642116  0.12108210    -0.77900
C253        C  0.34503631  0.89290779  0.32583123     0.82100
N254        N  0.37413212  0.88077002  0.30849951    -0.76200
C255        C  0.39067487  0.85061851  0.31932735     0.84500
N256        N  0.37781389  0.83252618  0.34761880    -0.76200
C257        C  0.34890861  0.84423380  0.36514965     0.84600
N258        N  0.33243357  0.87441812  0.35408748    -0.77900
O259        O  0.32274476  0.05326842  0.22331955    -0.71100
O260        O  0.26252602  0.97164358  0.18772729    -0.72100
O261        O  0.26361400  0.04562312  0.17671983    -0.60700
O262        O  0.32274019  0.97853261  0.23371637    -0.69100
O263        O  0.28688811  0.98359694  0.27986179    -0.68700
O264        O  0.22752293  0.05397935  0.22222936    -0.59900
O265        O  0.22651100  0.97931750  0.23332993    -0.72400
O266        O  0.28709827  0.05920822  0.26943297    -0.71200
Cu267      Cu  0.29414831  0.01199804  0.20388136     1.04600
Cu268      Cu  0.25580884  0.01925176  0.25293609     1.04300
C269        C  0.31380099  0.06960808  0.25173623     0.95100
C270        C  0.23483670  0.96286563  0.20488998     0.94200
C271        C  0.23675532  0.06072339  0.19013588     0.86400
C272        C  0.31401571  0.96965999  0.26524563     0.92600
C273        C  0.39326440  0.18613120  0.63538655     0.82100
N274        N  0.37467068  0.15703698  0.64412813    -0.76200
C275        C  0.34454206  0.14870476  0.62587405     0.84500
N276        N  0.33296942  0.16984357  0.59891826    -0.76200
C277        C  0.35135093  0.19909492  0.58984356     0.84600
N278        N  0.38146825  0.20723222  0.60818663    -0.77900
C279        C  0.15137161  0.37517612  0.64665011     0.82100
N280        N  0.17320696  0.39986240  0.66062505    -0.76200
C281        C  0.20389575  0.40825632  0.64427351     0.84500
N282        N  0.21271215  0.39143764  0.61345214    -0.76200
C283        C  0.19068817  0.36655323  0.59924576     0.84600
N284        N  0.16030585  0.35857108  0.61605175    -0.77900
C285        C  0.16520267  0.34652308  0.34353181     0.82100
N286        N  0.13729375  0.33120802  0.32650141    -0.76200
C287        C  0.12387989  0.34530361  0.29568518     0.84500
N288        N  0.13867716  0.37494850  0.28195117    -0.76200
C289        C  0.16659418  0.39047834  0.29890368     0.84600
N290        N  0.17976219  0.37600383  0.32958835    -0.77900
C291        C  0.82157139  0.13385537  0.14622237     0.82100
N292        N  0.85233511  0.14446264  0.16173273    -0.76200
C293        C  0.87104728  0.17139811  0.14800528     0.84500
N294        N  0.85856181  0.18837324  0.11810765    -0.76200
C295        C  0.82761769  0.17773102  0.10217360     0.84600
N296        N  0.80934560  0.15050735  0.11641949    -0.77900
C297        C  0.83691039  0.33882758  0.33781404     0.82100
N298        N  0.82036422  0.36905661  0.32661962    -0.76200
C299        C  0.83208493  0.38650530  0.29714238     0.84500
N300        N  0.86005282  0.37340314  0.27893073    -0.76200
C301        C  0.87658475  0.34345151  0.28969569     0.84600
N302        N  0.86487603  0.32627688  0.31916221    -0.77900
O303        O  0.96223253  0.20667257  0.21033250    -0.71100
O304        O  0.03848822  0.25075600  0.27389571    -0.72100
O305        O  0.96354353  0.25381824  0.26875414    -0.60700
O306        O  0.03741990  0.20077718  0.21760690    -0.69100
O307        O  0.04485040  0.24440298  0.17890754    -0.68700
O308        O  0.96587983  0.29807606  0.22999591    -0.59900
O309        O  0.04145548  0.29482409  0.23504828    -0.72400
O310        O  0.96897256  0.25025212  0.17144697    -0.71200
Cu311      Cu  0.00026811  0.22645610  0.24388085     1.04600
Cu312      Cu  0.00547087  0.27342350  0.20240406     1.04300
C313        C  0.95330020  0.22224725  0.18100350     0.95100
C314        C  0.05182031  0.28016440  0.26410807     0.94200
C315        C  0.95253109  0.28370698  0.25780581     0.86400
C316        C  0.05362834  0.21390601  0.19122191     0.92600
C317        C  0.18152734  0.64419320  0.31528580     0.82100
N318        N  0.15350026  0.66330034  0.30282456    -0.76200
C319        C  0.14262003  0.69272871  0.32041922     0.84500
N320        N  0.16023490  0.70312317  0.35048952    -0.76200
C321        C  0.18832587  0.68409065  0.36316775     0.84600
N322        N  0.19888315  0.65485628  0.34540744    -0.77900
C323        C  0.18678925  0.17368155  0.10555243     0.82100
N324        N  0.15712966  0.19221679  0.11403910    -0.76200
C325        C  0.13757134  0.18275400  0.14268755     0.84500
N326        N  0.14824457  0.15478414  0.16327907    -0.76200
C327        C  0.17784153  0.13623198  0.15493457     0.84600
N328        N  0.19688832  0.14598067  0.12611521    -0.77900
C329        C  0.37558442  0.35149816  0.14244612     0.82100
N330        N  0.36099491  0.37982596  0.15918717    -0.76200
C331        C  0.33038862  0.39464157  0.14650071     0.84500
N332        N  0.31435990  0.38094351  0.11715375    -0.76200
C333        C  0.32830033  0.35265062  0.10043830     0.84600
N334        N  0.35896767  0.33780284  0.11313432    -0.77900
C335        C  0.17956939  0.19445652  0.84119496     0.82100
N336        N  0.15365664  0.20830947  0.82025283    -0.76200
C337        C  0.14588291  0.19433143  0.78774709     0.84500
N338        N  0.16467292  0.16604560  0.77602621    -0.76200
C339        C  0.19108897  0.15192286  0.79694880     0.84600
N340        N  0.19839795  0.16630981  0.82940312    -0.77900
C341        C  0.35403931  0.38127391  0.82287847     0.82100
N342        N  0.38194639  0.37102417  0.80300454    -0.76200
C343        C  0.39827983  0.33972505  0.80936423     0.84500
N344        N  0.38657728  0.31830341  0.83586785    -0.76200
C345        C  0.35870943  0.32822263  0.85597614     0.84600
N346        N  0.34247315  0.35976258  0.84922271    -0.77900
O347        O  0.26826008  0.30315614  0.01442179    -0.71100
O348        O  0.21648627  0.24978984  0.93588098    -0.72100
O349        O  0.21268274  0.25365365  0.01117200    -0.60700
O350        O  0.26875800  0.30226994  0.93919299    -0.69100
O351        O  0.31031605  0.26072480  0.93973003    -0.68700
O352        O  0.25270851  0.21093101  0.01702309    -0.59900
O353        O  0.25725701  0.20766102  0.94117801    -0.72400
O354        O  0.30868809  0.26047339  0.01567416    -0.71200
Cu355      Cu  0.24012289  0.27862416  0.97506689     1.04600
Cu356      Cu  0.28367124  0.23333448  0.97851552     1.04300
C357        C  0.29711277  0.28977141  0.02703069     0.95100
C358        C  0.22949799  0.22007652  0.92622036     0.94200
C359        C  0.22330085  0.22532879  0.02598151     0.86400
C360        C  0.29781628  0.29013890  0.92783950     0.92600
O361        O  0.27951115  0.55422360  0.20442684    -0.71100
O362        O  0.22119420  0.47964073  0.25197770    -0.72100
O363        O  0.22492216  0.55507051  0.25596437    -0.60700
O364        O  0.27665455  0.47916597  0.20136092    -0.69100
O365        O  0.31657129  0.47541812  0.24538254    -0.68700
O366        O  0.26538845  0.55004502  0.29936627    -0.59900
O367        O  0.26138945  0.47545880  0.29570105    -0.72400
O368        O  0.31964656  0.55004905  0.24820829    -0.71200
Cu369      Cu  0.24909798  0.51715454  0.22687262     1.04600
Cu370      Cu  0.29206042  0.51260428  0.27367019     1.04300
C371        C  0.30866094  0.56401351  0.21890776     0.95100
C372        C  0.23234443  0.46547975  0.28111466     0.94200
C373        C  0.23763010  0.56470636  0.28632735     0.86400
C374        C  0.30481249  0.46537442  0.21496737     0.92600
O375        O  0.47099236  0.26228385  0.15445761    -0.71100
O376        O  0.54976244  0.22027972  0.21959964    -0.72100
O377        O  0.47444195  0.21311427  0.21193780    -0.60700
O378        O  0.54726249  0.26621443  0.15860342    -0.69100
O379        O  0.54366131  0.31171830  0.19548871    -0.68700
O380        O  0.46731044  0.25783549  0.24926792    -0.59900
O381        O  0.54216915  0.26594893  0.25561827    -0.72400
O382        O  0.46785122  0.30702702  0.19222358    -0.71200
Cu383      Cu  0.51090157  0.23893014  0.18475318     1.04600
Cu384      Cu  0.50508660  0.28719325  0.22435883     1.04300
C385        C  0.45647143  0.29132908  0.16431901     0.95100
C386        C  0.55790546  0.23725187  0.24831413     0.94200
C387        C  0.45885330  0.22682374  0.23841473     0.86400
C388        C  0.55772479  0.29653982  0.16845790     0.92600
O389        O  0.25105459  0.23211101  0.43403301    -0.71100
O390        O  0.21974741  0.29988393  0.51103958    -0.72100
O391        O  0.21132645  0.29549326  0.43531467    -0.60700
O392        O  0.25817914  0.23561897  0.50952409    -0.69100
O393        O  0.30789657  0.26607076  0.50502154    -0.68700
O394        O  0.26032579  0.32676034  0.42946215    -0.59900
O395        O  0.26933813  0.33019748  0.50514075    -0.72400
O396        O  0.30008898  0.26347218  0.42960503    -0.71200
Cu397      Cu  0.23328934  0.26478913  0.47274743     1.04600
Cu398      Cu  0.28611097  0.29771447  0.46709197     1.04300
C399        C  0.28098099  0.23754442  0.41962000     0.95100
C400        C  0.23989212  0.32542880  0.52042174     0.94200
C401        C  0.22839549  0.32006393  0.42009181     0.86400
C402        C  0.29016722  0.24110651  0.51901802     0.92600
O403        O  0.27994956  0.80606443  0.53363204    -0.71100
O404        O  0.21370504  0.76413324  0.46090304    -0.72100
O405        O  0.22801093  0.75256235  0.53524145    -0.60700
O406        O  0.26591530  0.81740905  0.45963090    -0.69100
O407        O  0.30658916  0.77722572  0.44677687    -0.68700
O408        O  0.26895324  0.71266188  0.52233025    -0.59900
O409        O  0.25438621  0.72391311  0.44807772    -0.72400
O410        O  0.32076723  0.76601414  0.52064674    -0.71200
Cu411      Cu  0.24542204  0.78639039  0.49784276     1.04600
Cu412      Cu  0.28902996  0.74352195  0.48396058     1.04300
C413        C  0.31073611  0.79270896  0.53861852     0.95100
C414        C  0.22382315  0.73767349  0.44263155     0.94200
C415        C  0.24287504  0.72268023  0.54112250     0.86400
C416        C  0.29236028  0.80744887  0.44128437     0.92600
O417        O  0.77343740  0.21373914  0.51001625    -0.71100
O418        O  0.80432181  0.27718581  0.42925122    -0.72100
O419        O  0.81839919  0.27296298  0.50440617    -0.60700
O420        O  0.75892177  0.21841696  0.43512004    -0.69100
O421        O  0.71333280  0.25459373  0.44260039    -0.68700
O422        O  0.77308911  0.30868216  0.51487786    -0.59900
O423        O  0.75951823  0.31365379  0.43894278    -0.72400
O424        O  0.72753594  0.24899826  0.51893613    -0.71200
Cu425      Cu  0.79025954  0.24442417  0.46933050     1.04600
Cu426      Cu  0.74171279  0.28276820  0.47923743     1.04300
C427        C  0.74572957  0.22150845  0.52750870     0.95100
C428        C  0.78685015  0.30512405  0.42108185     0.94200
C429        C  0.80509380  0.29904030  0.52108414     0.86400
C430        C  0.72728526  0.22792083  0.42732018     0.92600
O431        O  0.32914231  0.55688908  0.75572242    -0.71100
O432        O  0.27168557  0.48591182  0.69890316    -0.72100
O433        O  0.26986058  0.56045035  0.70802326    -0.60700
O434        O  0.33110195  0.48195075  0.74663405    -0.69100
O435        O  0.29482034  0.47499251  0.79217523    -0.68700
O436        O  0.23436090  0.55466804  0.75435357    -0.59900
O437        O  0.23580432  0.48071307  0.74501983    -0.72400
O438        O  0.29336354  0.54936122  0.80158370    -0.71200
Cu439      Cu  0.30182514  0.52150025  0.72574013     1.04600
Cu440      Cu  0.26343824  0.51470287  0.77488794     1.04300
C441        C  0.31973069  0.56460867  0.78750750     0.95100
C442        C  0.24438363  0.47242969  0.71323644     0.94200
C443        C  0.24241141  0.56994079  0.72513699     0.86400
C444        C  0.32231589  0.46567622  0.77505680     0.92600
O445        O  0.78031884  0.48042453  0.25262238    -0.71100
O446        O  0.73021958  0.56039123  0.20174156    -0.72100
O447        O  0.72925227  0.48495055  0.19625987    -0.60700
O448        O  0.78247296  0.55606426  0.25738746    -0.69100
O449        O  0.82406222  0.55639863  0.21616068    -0.68700
O450        O  0.77167385  0.48666262  0.15597632    -0.59900
O451        O  0.77232201  0.56149151  0.16106804    -0.72400
O452        O  0.82235820  0.48181629  0.21187728    -0.71200
Cu453      Cu  0.75399044  0.52042564  0.22843547     1.04600
Cu454      Cu  0.79902206  0.52169838  0.18493836     1.04300
C455        C  0.80900520  0.46818643  0.23985144     0.95100
C456        C  0.74356498  0.57378031  0.17365166     0.94200
C457        C  0.74256782  0.47413870  0.16688048     0.86400
C458        C  0.81191189  0.56755209  0.24571395     0.92600
O459        O  0.55694460  0.26964442  0.67376503    -0.71100
O460        O  0.48057133  0.30489343  0.73885350    -0.72100
O461        O  0.55522898  0.30675437  0.73909067    -0.60700
O462        O  0.48195561  0.26892730  0.67259244    -0.69100
O463        O  0.48207911  0.21818846  0.70228224    -0.68700
O464        O  0.55739452  0.25645346  0.76941190    -0.59900
O465        O  0.48250784  0.25412696  0.76850487    -0.72400
O466        O  0.55704960  0.21924300  0.70395672    -0.71200
Cu467      Cu  0.51858297  0.28931820  0.70503636     1.04600
Cu468      Cu  0.51978528  0.23517790  0.73702316     1.04300
C469        C  0.56927781  0.23864053  0.67918127     0.95100
C470        C  0.46973882  0.28494779  0.76403477     0.94200
C471        C  0.56819990  0.28793643  0.76444667     0.86400
C472        C  0.47012505  0.23789241  0.67693927     0.92600
O473        O  0.54899961  0.74867656  0.29923057    -0.71100
O474        O  0.47220666  0.71541852  0.23097491    -0.72100
O475        O  0.54706328  0.70665792  0.23669748    -0.60700
O476        O  0.47388070  0.75720424  0.29399502    -0.69100
O477        O  0.47865825  0.80470682  0.25975260    -0.68700
O478        O  0.55419567  0.75422998  0.20303544    -0.59900
O479        O  0.47909835  0.76267277  0.19681913    -0.72400
O480        O  0.55357690  0.79653800  0.26556946    -0.71200
Cu481      Cu  0.51021983  0.73033195  0.26635271     1.04600
Cu482      Cu  0.51663058  0.78121627  0.23014961     1.04300
C483        C  0.56360243  0.77821153  0.29269025     0.95100
C484        C  0.46353447  0.73369167  0.20330252     0.94200
C485        C  0.56268583  0.72249759  0.21133897     0.86400
C486        C  0.46436244  0.78858918  0.28588103     0.92600
O487        O  0.83454771  0.76348586  0.51515032    -0.71100
O488        O  0.76303537  0.79992590  0.44175538    -0.72100
O489        O  0.78008189  0.81490943  0.51511658    -0.60700
O490        O  0.81832947  0.74893509  0.44102154    -0.69100
O491        O  0.77975138  0.70811570  0.45657498    -0.68700
O492        O  0.74142681  0.77450700  0.53166022    -0.59900
O493        O  0.72465898  0.75926842  0.45822030    -0.72400
O494        O  0.79574966  0.72290033  0.53068496    -0.71200
Cu495      Cu  0.80032592  0.78317310  0.47762191     1.04600
Cu496      Cu  0.75913433  0.73972398  0.49485320     1.04300
C497        C  0.82571452  0.73784448  0.53532445     0.95100
C498        C  0.73272377  0.78524219  0.43828042     0.94200
C499        C  0.75525275  0.80503313  0.53549520     0.86400
C500        C  0.80468250  0.71851160  0.43641161     0.92600
O501        O  0.76994882  0.56164616  0.69030869    -0.71100
O502        O  0.72633069  0.48515962  0.74996446    -0.72100
O503        O  0.73168784  0.56000047  0.75469745    -0.60700
O504        O  0.76373594  0.48722572  0.68497310    -0.69100
O505        O  0.81399687  0.48133475  0.71588607    -0.68700
O506        O  0.78145550  0.55489950  0.78647931    -0.59900
O507        O  0.77637780  0.47961931  0.78125166    -0.72400
O508        O  0.81984479  0.55603684  0.72188268    -0.71200
Cu509      Cu  0.74616897  0.52370852  0.71900987     1.04600
Cu510      Cu  0.79968366  0.51770916  0.75248028     1.04300
C511        C  0.80176172  0.57108979  0.69699081     0.95100
C512        C  0.74466780  0.46994047  0.77466459     0.94200
C513        C  0.75136919  0.56963562  0.78097001     0.86400
C514        C  0.79393860  0.47267823  0.68941724     0.92600
O515        O  0.57474575  0.81439028  0.72274033    -0.71100
O516        O  0.49661148  0.76001507  0.77347320    -0.72100
O517        O  0.57165984  0.75541658  0.76933071    -0.60700
O518        O  0.49925810  0.82069126  0.72827371    -0.69100
O519        O  0.49213691  0.78527694  0.68156445    -0.68700
O520        O  0.56730803  0.72000806  0.72234099    -0.59900
O521        O  0.49266742  0.72493610  0.72620043    -0.72400
O522        O  0.56693109  0.77907184  0.67610237    -0.71200
Cu523      Cu  0.53574809  0.78893976  0.75010177     1.04600
Cu524      Cu  0.52952093  0.75122579  0.69988915     1.04300
C525        C  0.58329802  0.80436026  0.69126566     0.95100
C526        C  0.48275123  0.73346900  0.75742601     0.94200
C527        C  0.58131666  0.72781027  0.75263397     0.86400
C528        C  0.48364283  0.81307267  0.69890334     0.92600
C529        C  0.34513263  0.30402412  0.88376251    -0.14600
C530        C  0.31535327  0.31204379  0.90092571    -0.29800
H531        H  0.35889210  0.27936028  0.88930876     0.14400
H532        H  0.30183216  0.33666315  0.89449325     0.15000
C533        C  0.42728078  0.32882758  0.78603399    -0.14600
C534        C  0.44212508  0.29680469  0.78846352    -0.29800
H535        H  0.43580778  0.34722601  0.76563499     0.14400
H536        H  0.43346082  0.27830117  0.80869999     0.15000
C537        C  0.33469208  0.41430759  0.81443991    -0.14600
C538        C  0.34389577  0.43524906  0.78705419    -0.29800
H539        H  0.31138641  0.42053511  0.82987778     0.14400
H540        H  0.36702019  0.42880359  0.77143377     0.15000
C541        C  0.21427831  0.19966707  0.89660357    -0.14600
C542        C  0.18880828  0.21224364  0.87493857    -0.29800
H543        H  0.22687476  0.17459394  0.89059582     0.14400
H544        H  0.17616939  0.23733325  0.88074528     0.15000
C545        C  0.30848833  0.33757101  0.07000525    -0.14600
C546        C  0.31801738  0.30706589  0.05525015    -0.29800
H547        H  0.28462742  0.35102845  0.06071530     0.14400
H548        H  0.34168242  0.29346644  0.06485724     0.15000
C549        C  0.32418851  0.43726851  0.19613817    -0.14600
C550        C  0.31298387  0.42444598  0.16460133    -0.29800
H551        H  0.34769937  0.42625780  0.20908090     0.14400
H552        H  0.28919305  0.43528670  0.15202169     0.15000
C553        C  0.40853784  0.33559787  0.15761949    -0.14600
C554        C  0.42538511  0.30678050  0.14467458    -0.29800
H555        H  0.41886076  0.34809259  0.18169406     0.14400
H556        H  0.41535076  0.29367830  0.12083621     0.15000
C557        C  0.20938602  0.18410763  0.07542537    -0.14600
C558        C  0.20045304  0.21097705  0.05393897    -0.29800
H559        H  0.23425691  0.17023423  0.07165623     0.14400
H560        H  0.17556421  0.22472896  0.05809129     0.15000
C561        C  0.19410333  0.61320115  0.29502047    -0.14600
C562        C  0.22148311  0.59350436  0.30696868    -0.29800
H563        H  0.18149328  0.60724993  0.26944689     0.14400
H564        H  0.23394003  0.59965321  0.33257622     0.15000
C565        C  0.20024276  0.72391725  0.41421898    -0.14600
C566        C  0.20919643  0.69580228  0.39453010    -0.29800
H567        H  0.17579002  0.73812824  0.40842178     0.14400
H568        H  0.23345148  0.68141975  0.40079205     0.15000
C569        C  0.08325734  0.19284839  0.17694697    -0.14600
C570        C  0.10590301  0.20398309  0.15211457    -0.29800
H571        H  0.08769351  0.16723040  0.18933500     0.14400
H572        H  0.10166586  0.22931668  0.13911604     0.15000
C573        C  0.90659135  0.32969191  0.26869223    -0.14600
C574        C  0.92389153  0.30020938  0.27841242    -0.29800
H575        H  0.91407641  0.34363514  0.24458645     0.14400
H576        H  0.91596469  0.28636773  0.30244014     0.15000
C577        C  0.81416425  0.41907152  0.28415082    -0.14600
C578        C  0.82702073  0.43750211  0.25636702    -0.29800
H579        H  0.78991150  0.42746524  0.29685729     0.14400
H580        H  0.85138142  0.42898858  0.24393431     0.15000
C581        C  0.82525292  0.31856544  0.36960358    -0.14600
C582        C  0.79784387  0.32754984  0.39044170    -0.29800
H583        H  0.84001523  0.29462480  0.37580646     0.14400
H584        H  0.78268889  0.35129353  0.38449643     0.15000
C585        C  0.90341348  0.18231975  0.16776523    -0.14600
C586        C  0.92383107  0.20930264  0.15803381    -0.29800
H587        H  0.90978683  0.16821235  0.19238407     0.14400
H588        H  0.91751735  0.22374994  0.13361720     0.15000
C589        C  0.09444690  0.32808456  0.27597801    -0.14600
C590        C  0.07976673  0.29731818  0.28612651    -0.29800
H591        H  0.08521359  0.34091400  0.25154285     0.14400
H592        H  0.08888812  0.28416317  0.31041064     0.15000
C593        C  0.18054033  0.32980787  0.37584270    -0.14600
C594        C  0.21150783  0.34009488  0.39059543    -0.29800
H595        H  0.16691379  0.30705919  0.38650913     0.14400
H596        H  0.22582469  0.36213361  0.37937878     0.15000
C597        C  0.18366584  0.42173750  0.28295674    -0.14600
C598        C  0.21244064  0.43671756  0.29812488    -0.29800
H599        H  0.17325388  0.43169475  0.25762006     0.14400
H600        H  0.22299604  0.42646987  0.32328655     0.15000
C601        C  0.19973063  0.34586249  0.56727444    -0.14600
C602        C  0.23010885  0.34939341  0.54976660    -0.29800
H603        H  0.18105076  0.32574210  0.55881170     0.14400
H604        H  0.24897670  0.36940422  0.55802081     0.15000
C605        C  0.22166250  0.44713368  0.69390048    -0.14600
C606        C  0.22813257  0.43428136  0.66105412    -0.29800
H607        H  0.19842086  0.43839767  0.70805688     0.14400
H608        H  0.25162972  0.44224342  0.64688250     0.15000
C609        C  0.33787554  0.22277666  0.56135168    -0.14600
C610        C  0.30579771  0.21779168  0.54642503    -0.29800
H611        H  0.35390881  0.24501098  0.55335969     0.14400
H612        H  0.28955907  0.19598861  0.55519287     0.15000
C613        C  0.42457259  0.19553083  0.65727813    -0.14600
C614        C  0.44180512  0.22588251  0.65252840    -0.29800
H615        H  0.43236041  0.17797653  0.67906018     0.14400
H616        H  0.43361134  0.24370119  0.63112024     0.15000
C617        C  0.19078514  0.10700633  0.17809561    -0.14600
C618        C  0.21797243  0.08676597  0.16755208    -0.29800
H619        H  0.17922809  0.10317164  0.20421237     0.14400
H620        H  0.22874539  0.09062833  0.14106382     0.15000
C621        C  0.32541912  0.92447046  0.31259091    -0.14600
C622        C  0.33561208  0.94213877  0.28333687    -0.29800
H623        H  0.30105810  0.93185837  0.32570595     0.14400
H624        H  0.35963435  0.93410599  0.26996580     0.15000
C625        C  0.42115088  0.83663734  0.29905812    -0.14600
C626        C  0.43616335  0.80527321  0.30712231    -0.29800
H627        H  0.43040333  0.85165433  0.27631662     0.14400
H628        H  0.42641970  0.79015704  0.32958256     0.15000
C629        C  0.33514089  0.82259406  0.39467916    -0.14600
C630        C  0.30620382  0.83106924  0.41331400    -0.29800
H631        H  0.34917879  0.79817682  0.40074423     0.14400
H632        H  0.29213273  0.85555600  0.40771616     0.15000
C633        C  0.21857972  0.91493525  0.16260695    -0.14600
C634        C  0.21194524  0.93346716  0.19242489    -0.29800
H635        H  0.24138460  0.92177270  0.14675243     0.14400
H636        H  0.18926144  0.92673859  0.20848642     0.15000
C637        C  0.33390800  0.10135709  0.26358164    -0.14600
C638        C  0.32314671  0.12112373  0.29136130    -0.29800
H639        H  0.35685456  0.10928393  0.24849089     0.14400
H640        H  0.29994403  0.11287441  0.30590245     0.15000
C641        C  0.41239809  0.21830379  0.28321696    -0.14600
C642        C  0.43045180  0.20613618  0.25536073    -0.29800
H643        H  0.41954691  0.24375009  0.29443302     0.14400
H644        H  0.42373983  0.18065043  0.24400068     0.15000
C645        C  0.29378991  0.21421056  0.39082570    -0.14600
C646        C  0.32457782  0.22131380  0.37489753    -0.29800
H647        H  0.27773033  0.19211296  0.38209031     0.14400
H648        H  0.33987965  0.24393674  0.38371587     0.15000
C649        C  0.60379631  0.19503756  0.27182887    -0.14600
C650        C  0.58554133  0.22526544  0.27430629    -0.29800
H651        H  0.59845399  0.17748882  0.24949135     0.14400
H652        H  0.59089517  0.24252123  0.29688701     0.15000
C653        C  0.68003843  0.21757489  0.38011997    -0.14600
C654        C  0.70805814  0.20679493  0.40034985    -0.29800
H655        H  0.66831427  0.24341937  0.38414097     0.14400
H656        H  0.72007337  0.18130151  0.39511302     0.15000
C657        C  0.32013236  0.60868173  0.17191356    -0.14600
C658        C  0.32988482  0.59211803  0.20245996    -0.29800
H659        H  0.29624191  0.60071911  0.15765828     0.14400
H660        H  0.35382614  0.60005010  0.21664300     0.15000
C661        C  0.41687058  0.69225134  0.18520590    -0.14600
C662        C  0.43495766  0.72179856  0.17870759    -0.29800
H663        H  0.42388069  0.67649164  0.20859785     0.14400
H664        H  0.42807153  0.73804413  0.15565041     0.15000
C665        C  0.58704797  0.31255672  0.14818449    -0.14600
C666        C  0.60340437  0.34229556  0.15812967    -0.29800
H667        H  0.59671529  0.29810599  0.12522400     0.14400
H668        H  0.59394193  0.35655935  0.18129945     0.15000
C669        C  0.72542615  0.44590807  0.14568535    -0.14600
C670        C  0.69570480  0.43035154  0.15646324    -0.29800
H671        H  0.73862325  0.43644673  0.12191950     0.14400
H672        H  0.68269995  0.44012654  0.18022299     0.15000
C673        C  0.81203150  0.19601029  0.07065370    -0.14600
C674        C  0.82680349  0.22396449  0.05488783    -0.29800
H675        H  0.78665111  0.18652220  0.06072981     0.14400
H676        H  0.85216401  0.23366566  0.06460680     0.15000
C677        C  0.69796381  0.33219471  0.06779799    -0.14600
C678        C  0.72901685  0.34111124  0.05273164    -0.29800
H679        H  0.68440998  0.30873679  0.05840046     0.14400
H680        H  0.74293745  0.36434669  0.06213261     0.15000
C681        C  0.69997880  0.32869967  0.87601107    -0.14600
C682        C  0.72976037  0.33880594  0.89294814    -0.29800
H683        H  0.68671624  0.30491702  0.88468631     0.14400
H684        H  0.74346432  0.36227616  0.88413681     0.15000
C685        C  0.60931166  0.33502436  0.78104086    -0.14600
C686        C  0.59647877  0.30267855  0.78750470    -0.29800
H687        H  0.59804077  0.35078449  0.75932755     0.14400
H688        H  0.60785091  0.28638629  0.80873273     0.15000
C689        C  0.69808245  0.42653289  0.78664513    -0.14600
C690        C  0.72975827  0.44020930  0.79524187    -0.29800
H691        H  0.68266036  0.43833551  0.76490707     0.14400
H692        H  0.74586855  0.42820211  0.81632708     0.15000
C693        C  0.85057402  0.22662011  0.87697848    -0.14600
C694        C  0.82147705  0.21756298  0.89503006    -0.29800
H695        H  0.86387990  0.25095815  0.88415838     0.14400
H696        H  0.80751129  0.19365464  0.88769526     0.15000
C697        C  0.10290841  0.24140857  0.77529170    -0.14600
C698        C  0.11784434  0.21079096  0.76521570    -0.29800
H699        H  0.11183538  0.25422075  0.79975356     0.14400
H700        H  0.10982208  0.19819099  0.74034414     0.15000
C701        C  0.11985798  0.36459102  0.66649149    -0.14600
C702        C  0.10007113  0.33696759  0.65639677    -0.29800
H703        H  0.11428146  0.37833612  0.69126613     0.14400
H704        H  0.10596300  0.32281300  0.63194401     0.15000
C705        C  0.93646159  0.22025414  0.77998612    -0.14600
C706        C  0.95024293  0.25201811  0.78698800    -0.29800
H707        H  0.94583600  0.20528004  0.75722396     0.14400
H708        H  0.94135650  0.26714466  0.80982935     0.15000
C709        C  0.92357810  0.33734041  0.64470973    -0.14600
C710        C  0.94425401  0.35030322  0.67107329    -0.29800
H711        H  0.92971670  0.31205499  0.63267446     0.14400
H712        H  0.93807586  0.37573934  0.68277871     0.15000
C713        C  0.81620116  0.34377882  0.56866604    -0.14600
C714        C  0.82741143  0.31692493  0.54819232    -0.29800
H715        H  0.78976408  0.35455991  0.56466732     0.14400
H716        H  0.85399825  0.30649744  0.55218399     0.15000
C717        C  0.80504903  0.44526836  0.66383678    -0.14600
C718        C  0.83657359  0.42919978  0.66696198    -0.29800
H719        H  0.78659978  0.43756299  0.64272686     0.14400
H720        H  0.85476191  0.43713343  0.68823520     0.15000
C721        C  0.20295902  0.81712021  0.07834416    -0.14600
C722        C  0.22964000  0.82926175  0.05866087    -0.29800
H723        H  0.19153581  0.79150334  0.07262805     0.14400
H724        H  0.24040498  0.85514919  0.06455320     0.15000
C725        C  0.34333130  0.73159566  0.06714870    -0.14600
C726        C  0.33198515  0.70110768  0.08162598    -0.29800
H727        H  0.36560164  0.74545066  0.07908100     0.14400
H728        H  0.30943338  0.68796439  0.06933392     0.15000
C729        C  0.34369843  0.69870353  0.89108197    -0.14600
C730        C  0.34963455  0.72951222  0.90743656    -0.29800
H731        H  0.32129410  0.68274843  0.89879021     0.14400
H732        H  0.37199433  0.74540538  0.89944930     0.15000
C733        C  0.33769466  0.59238142  0.80839351    -0.14600
C734        C  0.36307130  0.61331237  0.79533801    -0.29800
H735        H  0.32744773  0.59746991  0.83488680     0.14400
H736        H  0.37374169  0.60831491  0.76901636     0.15000
C737        C  0.45507808  0.71146645  0.77381276    -0.14600
C738        C  0.43984134  0.71814420  0.80534493    -0.29800
H739        H  0.44637773  0.68878410  0.75838932     0.14400
H740        H  0.44777257  0.74115146  0.82066722     0.15000
C741        C  0.22933013  0.84705589  0.88390810    -0.14600
C742        C  0.22303940  0.81619192  0.90001148    -0.29800
H743        H  0.25165190  0.86260371  0.89331283     0.14400
H744        H  0.20089893  0.80026188  0.89091371     0.15000
C745        C  0.21311133  0.12209827  0.78457898    -0.14600
C746        C  0.20775050  0.10685976  0.75268448    -0.29800
H747        H  0.23449267  0.11280354  0.80198075     0.14400
H748        H  0.18618761  0.11609134  0.73547462     0.15000
C749        C  0.33171419  0.09921389  0.66553048    -0.14600
C750        C  0.32286446  0.11853350  0.63674614    -0.29800
H751        H  0.35601709  0.10477031  0.68031221     0.14400
H752        H  0.29824172  0.11356568  0.62230034     0.15000
C753        C  0.21982112  0.93815765  0.79329733    -0.14600
C754        C  0.20838722  0.95136408  0.76169552    -0.29800
H755        H  0.24282100  0.94938886  0.80672948     0.14400
H756        H  0.18569521  0.94005382  0.74782586     0.15000
C757        C  0.34851595  0.92534458  0.67681354    -0.14600
C758        C  0.32084941  0.94417993  0.66406053    -0.29800
H759        H  0.36162672  0.93272472  0.70171877     0.14400
H760        H  0.30871731  0.93669587  0.63866567     0.15000
C761        C  0.32671396  0.83671012  0.58425399    -0.14600
C762        C  0.33506802  0.80776711  0.56552528    -0.29800
H763        H  0.30162853  0.85008565  0.57926041     0.14400
H764        H  0.36025171  0.79448946  0.57021367     0.15000
C765        C  0.45470496  0.83629239  0.68621662    -0.14600
C766        C  0.43389759  0.82759629  0.65835789    -0.29800
H767        H  0.44890832  0.85975142  0.70171469     0.14400
H768        H  0.43954389  0.80381232  0.64329537     0.15000
C769        C  0.80091908  0.10537599  0.16260837    -0.14600
C770        C  0.80984752  0.09329010  0.19525252    -0.29800
H771        H  0.77800815  0.09496442  0.14836160     0.14400
H772        H  0.83227140  0.10461676  0.20958850     0.15000
C773        C  0.68893132  0.08867217  0.28401251    -0.14600
C774        C  0.69550333  0.11055748  0.31121155    -0.29800
H775        H  0.66583172  0.09290498  0.26684838     0.14400
H776        H  0.71859292  0.10624248  0.32837846     0.15000
C777        C  0.69172509  0.91501129  0.29785700    -0.14600
C778        C  0.71882661  0.93468922  0.30923290    -0.29800
H779        H  0.67773075  0.92175955  0.27313894     0.14400
H780        H  0.73213738  0.92852455  0.33448249     0.15000
C781        C  0.60477573  0.82413551  0.31099729    -0.14600
C782        C  0.59324117  0.79109766  0.31557204    -0.29800
H783        H  0.59021007  0.84134529  0.29264689     0.14400
H784        H  0.60693242  0.77312747  0.33377030     0.15000
C785        C  0.71379999  0.82537274  0.38956027    -0.14600
C786        C  0.70669679  0.79787876  0.41086243    -0.29800
H787        H  0.73892142  0.83880803  0.39304488     0.14400
H788        H  0.68158603  0.78432651  0.40808964     0.15000
C789        C  0.82335817  0.92867045  0.17787843    -0.14600
C790        C  0.83103335  0.94350820  0.20969946    -0.29800
H791        H  0.79964680  0.93672087  0.16313630     0.14400
H792        H  0.85465563  0.93586941  0.22476841     0.15000
C793        C  0.09380283  0.70405531  0.27767919    -0.14600
C794        C  0.11301676  0.71445728  0.30616860    -0.29800
H795        H  0.09924828  0.67865745  0.26551917     0.14400
H796        H  0.10751592  0.73964276  0.31872891     0.15000
C797        C  0.11770167  0.83300849  0.17545785    -0.14600
C798        C  0.09869916  0.80466435  0.16518998    -0.29800
H799        H  0.11057380  0.84726280  0.19948033     0.14400
H800        H  0.10585922  0.79032677  0.14123266     0.15000
C801        C  0.92394051  0.84622370  0.18105006    -0.14600
C802        C  0.94102071  0.81774178  0.16884308    -0.29800
H803        H  0.93232957  0.85825709  0.20610220     0.14400
H804        H  0.93211862  0.80540248  0.14412080     0.15000
C805        C  0.92033162  0.69411994  0.28040457    -0.14600
C806        C  0.93902599  0.72310489  0.28851998    -0.29800
H807        H  0.92630418  0.67958040  0.25620707     0.14400
H808        H  0.93298751  0.73780433  0.31259441     0.15000
C809        C  0.82274422  0.61125244  0.29490909    -0.14600
C810        C  0.83276770  0.59450365  0.26495608    -0.29800
H811        H  0.79832583  0.60407053  0.30789477     0.14400
H812        H  0.85735973  0.60194592  0.25242497     0.15000
C813        C  0.81676859  0.69565510  0.40670367    -0.14600
C814        C  0.84285389  0.70559553  0.38472673    -0.29800
H815        H  0.80293781  0.67107841  0.40189120     0.14400
H816        H  0.85679624  0.73001622  0.39008508     0.15000
C817        C  0.22577248  0.61522684  0.68027198    -0.14600
C818        C  0.21950683  0.59871752  0.71138310    -0.29800
H819        H  0.24836913  0.60744362  0.66447386     0.14400
H820        H  0.19696235  0.60641668  0.72728667     0.15000
C821        C  0.20310428  0.70842944  0.59075778    -0.14600
C822        C  0.23088089  0.69977190  0.57055090    -0.29800
H823        H  0.18779220  0.73198741  0.58430985     0.14400
H824        H  0.24607310  0.67603632  0.57653815     0.15000
C825        C  0.59880985  0.22535523  0.65767968    -0.14600
C826        C  0.61344153  0.19380301  0.66515827    -0.29800
H827        H  0.61006389  0.24239280  0.63749561     0.14400
H828        H  0.60231229  0.17736010  0.68594101     0.15000
C829        C  0.73508398  0.19852256  0.55802529    -0.14600
C830        C  0.70730622  0.20702048  0.57834847    -0.29800
H831        H  0.75017983  0.17470968  0.56380033     0.14400
H832        H  0.69263838  0.23091621  0.57167855     0.15000
C833        C  0.69750217  0.62044930  0.16820820    -0.14600
C834        C  0.72653557  0.60423121  0.15562963    -0.29800
H835        H  0.68477135  0.61039616  0.19195754     0.14400
H836        H  0.73925804  0.61438365  0.13191755     0.15000
C837        C  0.59136984  0.70355541  0.19278764    -0.14600
C838        C  0.61020561  0.71772328  0.16618461    -0.29800
H839        H  0.59798015  0.67726716  0.20244132     0.14400
H840        H  0.60344017  0.74384235  0.15616886     0.15000
C841        C  0.82533496  0.10761450  0.80140417    -0.14600
C842        C  0.85499804  0.12385327  0.79175093    -0.29800
H843        H  0.80966247  0.11866560  0.82280192     0.14400
H844        H  0.86996996  0.11294114  0.76975116     0.15000
C845        C  0.74292853  0.09883045  0.67187426    -0.14600
C846        C  0.70978576  0.11129186  0.67357016    -0.29800
H847        H  0.76076211  0.10913177  0.65196475     0.14400
H848        H  0.69266105  0.10009549  0.69368589     0.15000
C849        C  0.13230314  0.84537429  0.78962853    -0.14600
C850        C  0.11334610  0.81755589  0.80007544    -0.29800
H851        H  0.12451374  0.85872696  0.76495542     0.14400
H852        H  0.12033774  0.80378188  0.82470505     0.15000
C853        C  0.10574191  0.72461332  0.68069710    -0.14600
C854        C  0.12398270  0.69620014  0.69223755    -0.29800
H855        H  0.11276037  0.73698368  0.65557353     0.14400
H856        H  0.11774924  0.68397694  0.71764664     0.15000
C857        C  0.80292660  0.84974412  0.06899778    -0.14600
C858        C  0.83330411  0.83900690  0.08506482    -0.29800
H859        H  0.78935444  0.87312696  0.07852730     0.14400
H860        H  0.84697566  0.81575246  0.07535882     0.15000
C861        C  0.70677163  0.71422556  0.07888156    -0.14600
C862        C  0.69598130  0.74370552  0.06206435    -0.29800
H863        H  0.73134992  0.70159112  0.07117479     0.14400
H864        H  0.67131525  0.75628944  0.06956106     0.15000
C865        C  0.95602486  0.84102677  0.78614321    -0.14600
C866        C  0.93705446  0.83021562  0.81400893    -0.29800
H867        H  0.95013631  0.86640465  0.77383319     0.14400
H868        H  0.94312917  0.80494900  0.82647806     0.15000
C869        C  0.85171411  0.92895617  0.80418020    -0.14600
C870        C  0.82221792  0.94716543  0.81283132    -0.29800
H871        H  0.86624938  0.93670592  0.78061571     0.14400
H872        H  0.80724122  0.93951596  0.83612281     0.15000
C873        C  0.84237563  0.83804188  0.89950587    -0.14600
C874        C  0.81128992  0.84961116  0.91161450    -0.29800
H875        H  0.85424664  0.81434977  0.91099949     0.14400
H876        H  0.79909035  0.87313069  0.90012787     0.15000
C877        C  0.93584715  0.70797480  0.68150781    -0.14600
C878        C  0.95038587  0.73905102  0.67264608    -0.29800
H879        H  0.94642600  0.69394766  0.70472319     0.14400
H880        H  0.94043081  0.75367065  0.64957397     0.15000
C881        C  0.81721930  0.60008675  0.67600945    -0.14600
C882        C  0.84871141  0.61438300  0.68465685    -0.29800
H883        H  0.80156894  0.61090985  0.65393376     0.14400
H884        H  0.86384014  0.60407880  0.70735515     0.15000
C885        C  0.83974671  0.70030785  0.58747654    -0.14600
C886        C  0.84966596  0.72613565  0.56511448    -0.29800
H887        H  0.81473876  0.68715197  0.58229211     0.14400
H888        H  0.87468101  0.73949455  0.56943208     0.15000
C889        C  0.73950612  0.92140435  0.66841335    -0.14600
C890        C  0.72847431  0.94312857  0.69434033    -0.29800
H891        H  0.76500494  0.92555670  0.65617670     0.14400
H892        H  0.70262854  0.93870622  0.70577701     0.15000
C893        C  0.63551058  0.84440694  0.68430893    -0.14600
C894        C  0.61288019  0.82012839  0.67138980    -0.29800
H895        H  0.63132582  0.85595743  0.71046631     0.14400
H896        H  0.61731363  0.80930200  0.64493647     0.15000
C897        C  0.74365809  0.82916387  0.56417627    -0.14600
C898        C  0.71716199  0.82128554  0.58626845    -0.29800
H899        H  0.75797475  0.85368760  0.56770349     0.14400
H900        H  0.70246746  0.79705608  0.58220111     0.15000
C901        C  0.71970014  0.70974478  0.88971586    -0.14600
C902        C  0.70725477  0.73993894  0.90409337    -0.29800
H903        H  0.74362924  0.69750545  0.90047523     0.14400
H904        H  0.68332429  0.75201169  0.89312640     0.15000
C905        C  0.62514162  0.71419931  0.79959965    -0.14600
C906        C  0.60942831  0.70532313  0.76839022    -0.29800
H907        H  0.61642431  0.73756986  0.81378459     0.14400
H908        H  0.61815721  0.68227499  0.75371712     0.15000
C909        C  0.70940799  0.61644373  0.79651757    -0.14600
C910        C  0.73963383  0.59898053  0.80419555    -0.29800
H911        H  0.69304777  0.60769722  0.77411769     0.14400
H912        H  0.75667124  0.60750980  0.82612924     0.15000
loop_ 
_geom_bond_atom_site_label_1 
_geom_bond_atom_site_label_2 
_geom_bond_distance 
_geom_bond_site_symmetry_2 
_ccdc_geom_bond_type 
C1            N2   1.367       .  A
C1            N6   1.357       .  A
C1          C909   1.476       .  S
N2            C3   1.366       .  A
C3            N4   1.357       .  A
C3          C901   1.485       .  S
N4            C5   1.351       .  A
C5            N6   1.353       .  A
C5          C905   1.469       .  S
C7            N8   1.359       .  A
C7           N12   1.359       .  A
C7          C893   1.490       .  S
N8            C9   1.357       .  A
C9           N10   1.363       .  A
C9          C898   1.482       .  S
N10          C11   1.362       .  A
C11          N12   1.366       .  A
C11         C889   1.491       .  S
C13          N14   1.370       .  A
C13          N18   1.358       .  A
C13         C885   1.482       .  S
N14          C15   1.369       .  A
C15          N16   1.359       .  A
C15         C877   1.484       .  S
N16          C17   1.353       .  A
C17          N18   1.354       .  A
C17         C882   1.479       .  S
C19          N20   1.354       .  A
C19          N24   1.364       .  A
C19         C873   1.473       .  S
N20          C21   1.352       .  A
C21          N22   1.362       .  A
C21         C866   1.480       .  S
N22          C23   1.363       .  A
C23          N24   1.363       .  A
C23         C869   1.487       .  S
O25         Cu33   2.018       .  S
O25          C35   1.281       .  A
O26         Cu33   2.023   1_554  S
O26          C36   1.281       .  A
O27         Cu33   2.013       .  S
O27          C37   1.277       .  A
O28         Cu33   2.008   1_554  S
O28          C38   1.277       .  A
O29         Cu34   2.019   1_554  S
O29          C38   1.279       .  A
O30         Cu34   2.018       .  S
O30          C37   1.280       .  A
O31         Cu34   1.997   1_554  S
O31          C36   1.274       .  A
O32         Cu34   1.997       .  S
O32          C35   1.274       .  A
Cu33        Cu34   2.374       .  S
C35         C874   1.475       .  S
C36         C862   1.476       .  S
C37         C902   1.477       .  S
C38         C857   1.478       .  S
O39         Cu47   2.013       .  S
O39          C49   1.275       .  A
O40         Cu47   2.012   1_655  S
O40          C50   1.280       .  A
O41         Cu47   2.035       .  S
O41          C51   1.281       .  A
O42         Cu47   2.038   1_655  S
O42          C52   1.283       .  A
O43         Cu48   1.989   1_655  S
O43          C52   1.273       .  A
O44         Cu48   1.982       .  S
O44          C51   1.273       .  A
O45         Cu48   2.036   1_655  S
O45          C50   1.280       .  A
O46         Cu48   2.033       .  S
O46          C49   1.284       .  A
Cu47        Cu48   2.371       .  S
C49         C850   1.489       .  S
C50         C878   1.492       .  S
C51         C853   1.471       .  S
C52         C865   1.478       .  S
O53         Cu61   2.059       .  S
O53          C63   1.287       .  A
O54         Cu61   2.063   1_565  S
O54          C64   1.285       .  A
O55         Cu61   2.012       .  S
O55          C65   1.274       .  A
O56         Cu61   2.007   1_565  S
O56          C66   1.277       .  A
O57         Cu62   2.046   1_565  S
O57          C66   1.283       .  A
O58         Cu62   2.047       .  S
O58          C65   1.286       .  A
O59         Cu62   1.978   1_565  S
O59          C64   1.272       .  A
O60         Cu62   1.989       .  S
O60          C63   1.271       .  A
Cu61        Cu62   2.369       .  S
C63         C841   1.487       .  S
C64         C890   1.481       .  S
C65         C845   1.494       .  S
C66         C870   1.491       .  S
C67          N68   1.357       .  A
C67          N72   1.360       .  A
C67         C833   1.480       .  S
N68          C69   1.354       .  A
C69          N70   1.362       .  A
C69         C861   1.477       .  S
N70          C71   1.361       .  A
C71          N72   1.363       .  A
C71         C838   1.484       .  S
C73          N74   1.346       .  A
C73          N78   1.351       .  A
C73         C826   1.467       .  S
N74          C75   1.352       .  A
C75          N76   1.376       .  A
C75         C846   1.487       .  S
N76          C77   1.377       .  A
C77          N78   1.359       .  A
C77         C830   1.489       .  S
C79          N80   1.359       .  A
C79          N84   1.358       .  A
C79         C854   1.482       .  S
N80          C81   1.354       .  A
C81          N82   1.359       .  A
C81         C821   1.478       .  S
N82          C83   1.361       .  A
C83          N84   1.363       .  A
C83         C817   1.478       .  S
C85          N86   1.360       .  A
C85          N90   1.354       .  A
C85         C805   1.483       .  S
N86          C87   1.362       .  A
C87          N88   1.365       .  A
C87         C814   1.485       .  S
N88          C89   1.363       .  A
C89          N90   1.360       .  A
C89         C809   1.487       .  S
O91         Cu99   2.007   1_655  S
O91         C101   1.276       .  A
O92         Cu99   2.010       .  S
O92         C102   1.277       .  A
O93         Cu99   2.031   1_655  S
O93         C103   1.282       .  A
O94         Cu99   2.030       .  S
O94         C104   1.281       .  A
O95        Cu100   1.985       .  S
O95         C104   1.273       .  A
O96        Cu100   1.986   1_655  S
O96         C103   1.273       .  A
O97        Cu100   2.026       .  S
O97         C102   1.280       .  A
O98        Cu100   2.032   1_655  S
O98         C101   1.282       .  A
Cu99       Cu100   2.374       .  S
C101        C806   1.482       .  S
C102        C798   1.481       .  S
C103        C802   1.473       .  S
C104        C793   1.472       .  S
C105        N106   1.358       .  A
C105        N110   1.355       .  A
C105        C858   1.480       .  S
N106        C107   1.364       .  A
C107        N108   1.358       .  A
C107        C801   1.478       .  S
N108        C109   1.358       .  A
C109        N110   1.356       .  A
C109        C789   1.467       .  S
C111        N112   1.355       .  A
C111        N116   1.346       .  A
C111        C777   1.469       .  S
N112        C113   1.358       .  A
C113        N114   1.371       .  A
C113        C785   1.482       .  S
N114        C115   1.369       .  A
C115        N116   1.353       .  A
C115        C781   1.473       .  S
O117       Cu125   2.026       .  S
O117        C127   1.283       .  A
O118       Cu125   2.027   1_565  S
O118        C128   1.279       .  A
O119       Cu125   1.976       .  S
O119        C129   1.272       .  A
O120       Cu125   1.980   1_565  S
O120        C130   1.272       .  A
O121       Cu126   2.020   1_565  S
O121        C130   1.281       .  A
O122       Cu126   2.023       .  S
O122        C129   1.280       .  A
O123       Cu126   1.973   1_565  S
O123        C128   1.275       .  A
O124       Cu126   1.978       .  S
O124        C127   1.271       .  A
Cu125      Cu126   2.377       .  S
C127        C773   1.469       .  S
C128        C790   1.475       .  S
C129        C770   1.464       .  S
C130        C778   1.467       .  S
C131        N132   1.354       .  A
C131        N136   1.353       .  A
C131        C761   1.472       .  S
N132        C133   1.355       .  A
C133        N134   1.365       .  A
C133        C766   1.473       .  S
N134        C135   1.361       .  A
C135        N136   1.360       .  A
C135        C757   1.485       .  S
O137       Cu145   2.044       .  S
O137        C147   1.284       .  A
O138       Cu145   2.044   1_565  S
O138        C148   1.282       .  A
O139       Cu145   1.974       .  S
O139        C149   1.272       .  A
O140       Cu145   1.970   1_565  S
O140        C150   1.274       .  A
O141       Cu146   2.025   1_565  S
O141        C150   1.280       .  A
O142       Cu146   2.023       .  S
O142        C149   1.281       .  A
O143       Cu146   1.979   1_565  S
O143        C148   1.273       .  A
O144       Cu146   1.982       .  S
O144        C147   1.272       .  A
Cu145      Cu146   2.375       .  S
C147        C746   1.476       .  S
C148        C758   1.473       .  S
C149        C749   1.465       .  S
C150        C754   1.471       .  S
C151        N152   1.351       .  A
C151        N156   1.349       .  A
C151        C753   1.467       .  S
N152        C153   1.356       .  A
C153        N154   1.373       .  A
C153        C741   1.486       .  S
N154        C155   1.372       .  A
C155        N156   1.354       .  A
C155        C849   1.481       .  S
C157        N158   1.354       .  A
C157        N162   1.363       .  A
C157        C729   1.481       .  S
N158        C159   1.358       .  A
C159        N160   1.360       .  A
C159        C734   1.483       .  S
N160        C161   1.364       .  A
C161        N162   1.360       .  A
C161        C738   1.488       .  S
O163       Cu171   2.048       .  S
O163        C173   1.284       .  A
O164       Cu171   2.049   1_554  S
O164        C174   1.283       .  A
O165       Cu171   2.002       .  S
O165        C175   1.274       .  A
O166       Cu171   1.995   1_554  S
O166        C176   1.276       .  A
O167       Cu172   2.052   1_554  S
O167        C176   1.283       .  A
O168       Cu172   2.050       .  S
O168        C175   1.286       .  A
O169       Cu172   1.974   1_554  S
O169        C174   1.271       .  A
O170       Cu172   1.979       .  S
O170        C173   1.271       .  A
Cu171      Cu172   2.371       .  S
C173        C730   1.476       .  S
C174        C722   1.474       .  S
C175        C742   1.489       .  S
C176        C725   1.492       .  S
C177        N178   1.363       .  A
C177        N182   1.364       .  A
C177        C713   1.484       .  S
N178        C179   1.356       .  A
C179        N180   1.354       .  A
C179        C709   1.476       .  S
N180        C181   1.352       .  A
C181        N182   1.363       .  A
C181        C718   1.475       .  S
O183       Cu191   2.002       .  S
O183        C193   1.278       .  A
O184       Cu191   2.007   1_655  S
O184        C194   1.276       .  A
O185       Cu191   1.993       .  S
O185        C195   1.276       .  A
O186       Cu191   1.993   1_655  S
O186        C196   1.275       .  A
O187       Cu192   2.014   1_655  S
O187        C196   1.279       .  A
O188       Cu192   2.015       .  S
O188        C195   1.278       .  A
O189       Cu192   2.003   1_655  S
O189        C194   1.279       .  A
O190       Cu192   2.001       .  S
O190        C193   1.276       .  A
Cu191      Cu192   2.376       .  S
C193        C702   1.469       .  S
C194        C706   1.474       .  S
C195        C697   1.468       .  S
C196        C710   1.469       .  S
C197        N198   1.352       .  A
C197        N202   1.372       .  A
C197        C842   1.485       .  S
N198        C199   1.349       .  A
C199        N200   1.357       .  A
C199        C705   1.471       .  S
N200        C201   1.361       .  A
C201        N202   1.373       .  A
C201        C693   1.492       .  S
C203        N204   1.364       .  A
C203        N208   1.355       .  A
C203        C689   1.479       .  S
N204        C205   1.367       .  A
C205        N206   1.358       .  A
C205        C681   1.479       .  S
N206        C207   1.356       .  A
C207        N208   1.353       .  A
C207        C685   1.471       .  S
O209       Cu217   2.004       .  S
O209        C219   1.275       .  A
O210       Cu217   2.006   1_554  S
O210        C220   1.275       .  A
O211       Cu217   2.048       .  S
O211        C221   1.284       .  A
O212       Cu217   2.048   1_554  S
O212        C222   1.283       .  A
O213       Cu218   2.024   1_554  S
O213        C222   1.279       .  A
O214       Cu218   2.021       .  S
O214        C221   1.277       .  A
O215       Cu218   2.023   1_554  S
O215        C220   1.281       .  A
O216       Cu218   2.025       .  S
O216        C219   1.281       .  A
Cu217      Cu218   2.370       .  S
C219        C682   1.480       .  S
C220        C674   1.480       .  S
C221        C694   1.494       .  S
C222        C678   1.496       .  S
C223        N224   1.366       .  A
C223        N228   1.354       .  A
C223        C670   1.478       .  S
N224        C225   1.366       .  A
C225        N226   1.367       .  A
C225        C677   1.495       .  S
N226        C227   1.365       .  A
C227        N228   1.352       .  A
C227        C666   1.487       .  S
C229        N230   1.355       .  A
C229        N234   1.367       .  A
C229        C661   1.477       .  S
N230        C231   1.354       .  A
C231        N232   1.356       .  A
C231        C657   1.481       .  S
N232        C233   1.362       .  A
C233        N234   1.366       .  A
C233        C726   1.484       .  S
C235        N236   1.367       .  A
C235        N240   1.355       .  A
C235        C653   1.492       .  S
N236        C237   1.372       .  A
C237        N238   1.359       .  A
C237        C649   1.489       .  S
N238        C239   1.358       .  A
C239        N240   1.347       .  A
C239        C774   1.470       .  S
C241        N242   1.357       .  A
C241        N246   1.349       .  A
C241        C646   1.471       .  S
N242        C243   1.364       .  A
C243        N244   1.371       .  A
C243        C638   1.488       .  S
N244        C245   1.369       .  A
C245        N246   1.350       .  A
C245        C641   1.481       .  S
C247        N248   1.363       .  A
C247        N252   1.356       .  A
C247        C633   1.487       .  S
N248        C249   1.365       .  A
C249        N250   1.362       .  A
C249        C797   1.483       .  S
N250        C251   1.356       .  A
C251        N252   1.360       .  A
C251        C721   1.483       .  S
C253        N254   1.364       .  A
C253        N258   1.361       .  A
C253        C621   1.485       .  S
N254        C255   1.359       .  A
C255        N256   1.358       .  A
C255        C625   1.486       .  S
N256        C257   1.357       .  A
C257        N258   1.361       .  A
C257        C629   1.478       .  S
O259       Cu267   2.037       .  S
O259        C269   1.280       .  A
O260       Cu267   2.035   1_565  S
O260        C270   1.282       .  A
O261       Cu267   1.983       .  S
O261        C271   1.274       .  A
O262       Cu267   1.992   1_565  S
O262        C272   1.274       .  A
O263       Cu268   2.041   1_565  S
O263        C272   1.282       .  A
O264       Cu268   2.034       .  S
O264        C271   1.281       .  A
O265       Cu268   2.015   1_565  S
O265        C270   1.277       .  A
O266       Cu268   2.020       .  S
O266        C269   1.280       .  A
Cu267      Cu268   2.371       .  S
C269        C637   1.493       .  S
C270        C634   1.487       .  S
C271        C618   1.471       .  S
C272        C622   1.478       .  S
C273        N274   1.355       .  A
C273        N278   1.361       .  A
C273        C613   1.475       .  S
N274        C275   1.358       .  A
C275        N276   1.353       .  A
C275        C750   1.472       .  S
N276        C277   1.359       .  A
C277        N278   1.358       .  A
C277        C609   1.475       .  S
C279        N280   1.353       .  A
C279        N284   1.354       .  A
C279        C701   1.471       .  S
N280        C281   1.359       .  A
C281        N282   1.364       .  A
C281        C606   1.485       .  S
N282        C283   1.366       .  A
C283        N284   1.354       .  A
C283        C601   1.475       .  S
C285        N286   1.358       .  A
C285        N290   1.357       .  A
C285        C593   1.473       .  S
N286        C287   1.359       .  A
C287        N288   1.363       .  A
C287        C589   1.481       .  S
N288        C289   1.361       .  A
C289        N290   1.357       .  A
C289        C597   1.482       .  S
C291        N292   1.355       .  A
C291        N296   1.354       .  A
C291        C769   1.475       .  S
N292        C293   1.352       .  A
C293        N294   1.365       .  A
C293        C585   1.481       .  S
N294        C295   1.368       .  A
C295        N296   1.359       .  A
C295        C673   1.479       .  S
C297        N298   1.366       .  A
C297        N302   1.360       .  A
C297        C581   1.488       .  S
N298        C299   1.366       .  A
C299        N300   1.359       .  A
C299        C577   1.483       .  S
N300        C301   1.352       .  A
C301        N302   1.360       .  A
C301        C573   1.483       .  S
O303       Cu311   2.041   1_655  S
O303        C313   1.284       .  A
O304       Cu311   2.041       .  S
O304        C314   1.282       .  A
O305       Cu311   1.975   1_655  S
O305        C315   1.271       .  A
O306       Cu311   1.980       .  S
O306        C316   1.272       .  A
O307       Cu312   2.057       .  S
O307        C316   1.285       .  A
O308       Cu312   2.054   1_655  S
O308        C315   1.285       .  A
O309       Cu312   1.991       .  S
O309        C314   1.275       .  A
O310       Cu312   1.996   1_655  S
O310        C313   1.273       .  A
Cu311      Cu312   2.371       .  S
C313        C586   1.483       .  S
C314        C590   1.484       .  S
C315        C574   1.476       .  S
C316        C569   1.480       .  S
C317        N318   1.357       .  A
C317        N322   1.358       .  A
C317        C561   1.481       .  S
N318        C319   1.362       .  A
C319        N320   1.358       .  A
C319        C794   1.479       .  S
N320        C321   1.360       .  A
C321        N322   1.356       .  A
C321        C566   1.474       .  S
C323        N324   1.363       .  A
C323        N328   1.351       .  A
C323        C557   1.479       .  S
N324        C325   1.360       .  A
C325        N326   1.365       .  A
C325        C570   1.487       .  S
N326        C327   1.360       .  A
C327        N328   1.357       .  A
C327        C617   1.482       .  S
C329        N330   1.364       .  A
C329        N334   1.360       .  A
C329        C553   1.486       .  S
N330        C331   1.362       .  A
C331        N332   1.352       .  A
C331        C550   1.476       .  S
N332        C333   1.352       .  A
C333        N334   1.365       .  A
C333        C545   1.471       .  S
C335        N336   1.348       .  A
C335        N340   1.359       .  A
C335        C542   1.470       .  S
N336        C337   1.356       .  A
C337        N338   1.361       .  A
C337        C698   1.479       .  S
N338        C339   1.366       .  A
C339        N340   1.357       .  A
C339        C745   1.481       .  S
C341        N342   1.356       .  A
C341        N346   1.357       .  A
C341        C537   1.479       .  S
N342        C343   1.355       .  A
C343        N344   1.361       .  A
C343        C533   1.470       .  S
N344        C345   1.356       .  A
C345        N346   1.364       .  A
C345        C529   1.485       .  S
O347       Cu355   2.033   1_554  S
O347        C357   1.284       .  A
O348       Cu355   2.030       .  S
O348        C358   1.283       .  A
O349       Cu355   1.961   1_554  S
O349        C359   1.269       .  A
O350       Cu355   1.957       .  S
O350        C360   1.269       .  A
O351       Cu356   2.062       .  S
O351        C360   1.286       .  A
O352       Cu356   2.056   1_554  S
O352        C359   1.286       .  A
O353       Cu356   1.967       .  S
O353        C358   1.270       .  A
O354       Cu356   1.965   1_554  S
O354        C357   1.269       .  A
Cu355      Cu356   2.376       .  S
C357        C546   1.467       .  S
C358        C541   1.465       .  S
C359        C558   1.472       .  S
C360        C530   1.472       .  S
O361       Cu369   2.013       .  S
O361        C371   1.278       .  A
O362       Cu369   2.016       .  S
O362        C372   1.278       .  A
O363       Cu369   2.028       .  S
O363        C373   1.281       .  A
O364       Cu369   2.024       .  S
O364        C374   1.282       .  A
O365       Cu370   1.998       .  S
O365        C374   1.274       .  A
O366       Cu370   1.995       .  S
O366        C373   1.275       .  A
O367       Cu370   2.014       .  S
O367        C372   1.278       .  A
O368       Cu370   2.014       .  S
O368        C371   1.278       .  A
Cu369      Cu370   2.374       .  S
C371        C658   1.477       .  S
C372        C598   1.478       .  S
C373        C562   1.474       .  S
C374        C549   1.477       .  S
O375       Cu383   2.067       .  S
O375        C385   1.286       .  A
O376       Cu383   2.069       .  S
O376        C386   1.287       .  A
O377       Cu383   1.987       .  S
O377        C387   1.271       .  A
O378       Cu383   1.993       .  S
O378        C388   1.273       .  A
O379       Cu384   2.054       .  S
O379        C388   1.285       .  A
O380       Cu384   2.051       .  S
O380        C387   1.286       .  A
O381       Cu384   1.978       .  S
O381        C386   1.270       .  A
O382       Cu384   1.981       .  S
O382        C385   1.273       .  A
Cu383      Cu384   2.369       .  S
C385        C554   1.493       .  S
C386        C650   1.485       .  S
C387        C642   1.483       .  S
C388        C665   1.485       .  S
O389       Cu397   2.028       .  S
O389        C399   1.279       .  A
O390       Cu397   2.027       .  S
O390        C400   1.283       .  A
O391       Cu397   1.988       .  S
O391        C401   1.275       .  A
O392       Cu397   1.986       .  S
O392        C402   1.274       .  A
O393       Cu398   2.019       .  S
O393        C402   1.280       .  A
O394       Cu398   2.021       .  S
O394        C401   1.279       .  A
O395       Cu398   1.993       .  S
O395        C400   1.273       .  A
O396       Cu398   1.989       .  S
O396        C399   1.277       .  A
Cu397      Cu398   2.374       .  S
C399        C645   1.481       .  S
C400        C602   1.477       .  S
C401        C594   1.473       .  S
C402        C610   1.467       .  S
O403       Cu411   2.003       .  S
O403        C413   1.278       .  A
O404       Cu411   2.006       .  S
O404        C414   1.276       .  A
O405       Cu411   2.017       .  S
O405        C415   1.280       .  A
O406       Cu411   2.016       .  S
O406        C416   1.278       .  A
O407       Cu412   2.010       .  S
O407        C416   1.279       .  A
O408       Cu412   2.011       .  S
O408        C415   1.277       .  A
O409       Cu412   2.007       .  S
O409        C414   1.279       .  A
O410       Cu412   2.004       .  S
O410        C413   1.276       .  A
Cu411      Cu412   2.374       .  S
C413        C762   1.471       .  S
C414        C565   1.474       .  S
C415        C822   1.479       .  S
C416        C630   1.480       .  S
O417       Cu425   2.026       .  S
O417        C427   1.277       .  A
O418       Cu425   2.025       .  S
O418        C428   1.280       .  A
O419       Cu425   2.000       .  S
O419        C429   1.276       .  A
O420       Cu425   1.996       .  S
O420        C430   1.277       .  A
O421       Cu426   2.036       .  S
O421        C430   1.279       .  A
O422       Cu426   2.030       .  S
O422        C429   1.280       .  A
O423       Cu426   2.032       .  S
O423        C428   1.280       .  A
O424       Cu426   2.039       .  S
O424        C427   1.284       .  A
Cu425      Cu426   2.371       .  S
C427        C829   1.496       .  S
C428        C582   1.491       .  S
C429        C714   1.477       .  S
C430        C654   1.475       .  S
O431       Cu439   2.028       .  S
O431        C441   1.280       .  A
O432       Cu439   2.029       .  S
O432        C442   1.280       .  A
O433       Cu439   2.009       .  S
O433        C443   1.279       .  A
O434       Cu439   2.010       .  S
O434        C444   1.277       .  A
O435       Cu440   2.012       .  S
O435        C444   1.278       .  A
O436       Cu440   2.012       .  S
O436        C443   1.277       .  A
O437       Cu440   1.997       .  S
O437        C442   1.276       .  A
O438       Cu440   1.999       .  S
O438        C441   1.276       .  A
Cu439      Cu440   2.374       .  S
C441        C733   1.476       .  S
C442        C605   1.475       .  S
C443        C818   1.477       .  S
C444        C538   1.475       .  S
O445       Cu453   2.016       .  S
O445        C455   1.278       .  A
O446       Cu453   2.014       .  S
O446        C456   1.278       .  A
O447       Cu453   2.030       .  S
O447        C457   1.283       .  A
O448       Cu453   2.037       .  S
O448        C458   1.281       .  A
O449       Cu454   1.995       .  S
O449        C458   1.276       .  A
O450       Cu454   1.999       .  S
O450        C457   1.274       .  A
O451       Cu454   2.011       .  S
O451        C456   1.278       .  A
O452       Cu454   2.009       .  S
O452        C455   1.278       .  A
Cu453      Cu454   2.374       .  S
C455        C578   1.475       .  S
C456        C834   1.476       .  S
C457        C669   1.480       .  S
C458        C810   1.477       .  S
O459       Cu467   2.019       .  S
O459        C469   1.278       .  A
O460       Cu467   2.016       .  S
O460        C470   1.281       .  A
O461       Cu467   1.984       .  S
O461        C471   1.276       .  A
O462       Cu467   1.988       .  S
O462        C472   1.273       .  A
O463       Cu468   2.023       .  S
O463        C472   1.281       .  A
O464       Cu468   2.026       .  S
O464        C471   1.279       .  A
O465       Cu468   1.984       .  S
O465        C470   1.273       .  A
O466       Cu468   1.982       .  S
O466        C469   1.276       .  A
Cu467      Cu468   2.375       .  S
C469        C825   1.474       .  S
C470        C534   1.468       .  S
C471        C686   1.476       .  S
C472        C614   1.471       .  S
O473       Cu481   2.026       .  S
O473        C483   1.277       .  A
O474       Cu481   2.022       .  S
O474        C484   1.282       .  A
O475       Cu481   2.004       .  S
O475        C485   1.276       .  A
O476       Cu481   2.008       .  S
O476        C486   1.277       .  A
O477       Cu482   2.030       .  S
O477        C486   1.280       .  A
O478       Cu482   2.032       .  S
O478        C485   1.281       .  A
O479       Cu482   2.006       .  S
O479        C484   1.275       .  A
O480       Cu482   2.000       .  S
O480        C483   1.280       .  A
Cu481      Cu482   2.372       .  S
C483        C782   1.485       .  S
C484        C662   1.481       .  S
C485        C837   1.480       .  S
C486        C626   1.480       .  S
O487       Cu495   2.032       .  S
O487        C497   1.279       .  A
O488       Cu495   2.029       .  S
O488        C498   1.282       .  A
O489       Cu495   2.008       .  S
O489        C499   1.276       .  A
O490       Cu495   2.013       .  S
O490        C500   1.278       .  A
O491       Cu496   2.032       .  S
O491        C500   1.280       .  A
O492       Cu496   2.028       .  S
O492        C499   1.281       .  A
O493       Cu496   2.014       .  S
O493        C498   1.276       .  A
O494       Cu496   2.012       .  S
O494        C497   1.280       .  A
Cu495      Cu496   2.370       .  S
C497        C886   1.490       .  S
C498        C786   1.487       .  S
C499        C897   1.482       .  S
C500        C813   1.487       .  S
O501       Cu509   2.018       .  S
O501        C511   1.278       .  A
O502       Cu509   2.019       .  S
O502        C512   1.281       .  A
O503       Cu509   2.000       .  S
O503        C513   1.278       .  A
O504       Cu509   2.000       .  S
O504        C514   1.274       .  A
O505       Cu510   2.023       .  S
O505        C514   1.282       .  A
O506       Cu510   2.027       .  S
O506        C513   1.279       .  A
O507       Cu510   2.015       .  S
O507        C512   1.277       .  A
O508       Cu510   2.010       .  S
O508        C511   1.278       .  A
Cu509      Cu510   2.372       .  S
C511        C881   1.479       .  S
C512        C690   1.483       .  S
C513        C910   1.484       .  S
C514        C717   1.478       .  S
O515       Cu523   2.053       .  S
O515        C525   1.283       .  A
O516       Cu523   2.053       .  S
O516        C526   1.284       .  A
O517       Cu523   1.981       .  S
O517        C527   1.275       .  A
O518       Cu523   1.991       .  S
O518        C528   1.273       .  A
O519       Cu524   2.021       .  S
O519        C528   1.281       .  A
O520       Cu524   2.022       .  S
O520        C527   1.279       .  A
O521       Cu524   1.990       .  S
O521        C526   1.274       .  A
O522       Cu524   1.991       .  S
O522        C525   1.274       .  A
Cu523      Cu524   2.373       .  S
C525        C894   1.481       .  S
C526        C737   1.482       .  S
C527        C906   1.474       .  S
C528        C765   1.473       .  S
C529        C530   1.339       .  D
C529        H531   1.086       .  S
C530        H532   1.087       .  S
C533        C534   1.338       .  D
C533        H535   1.087       .  S
C534        H536   1.087       .  S
C537        C538   1.346       .  D
C537        H539   1.086       .  S
C538        H540   1.086       .  S
C541        C542   1.334       .  D
C541        H543   1.087       .  S
C542        H544   1.087       .  S
C545        C546   1.334       .  D
C545        H547   1.086       .  S
C546        H548   1.086       .  S
C549        C550   1.340       .  D
C549        H551   1.087       .  S
C550        H552   1.087       .  S
C553        C554   1.357       .  D
C553        H555   1.086       .  S
C554        H556   1.086       .  S
C557        C558   1.335       .  D
C557        H559   1.087       .  S
C558        H560   1.087       .  S
C561        C562   1.344       .  D
C561        H563   1.086       .  S
C562        H564   1.087       .  S
C565        C566   1.342       .  D
C565        H567   1.087       .  S
C566        H568   1.087       .  S
C569        C570   1.342       .  D
C569        H571   1.087       .  S
C570        H572   1.086       .  S
C573        C574   1.340       .  D
C573        H575   1.086       .  S
C574        H576   1.087       .  S
C577        C578   1.350       .  D
C577        H579   1.086       .  S
C578        H580   1.086       .  S
C581        C582   1.349       .  D
C581        H583   1.086       .  S
C582        H584   1.086       .  S
C585        C586   1.339       .  D
C585        H587   1.087       .  S
C586        H588   1.086       .  S
C589        C590   1.352       .  D
C589        H591   1.086       .  S
C590        H592   1.086       .  S
C593        C594   1.347       .  D
C593        H595   1.086       .  S
C594        H596   1.086       .  S
C597        C598   1.348       .  D
C597        H599   1.086       .  S
C598        H600   1.086       .  S
C601        C602   1.338       .  D
C601        H603   1.087       .  S
C602        H604   1.087       .  S
C605        C606   1.348       .  D
C605        H607   1.086       .  S
C606        H608   1.086       .  S
C609        C610   1.342       .  D
C609        H611   1.086       .  S
C610        H612   1.086       .  S
C613        C614   1.340       .  D
C613        H615   1.087       .  S
C614        H616   1.087       .  S
C617        C618   1.345       .  D
C617        H619   1.086       .  S
C618        H620   1.087       .  S
C621        C622   1.344       .  D
C621        H623   1.086       .  S
C622        H624   1.086       .  S
C625        C626   1.347       .  D
C625        H627   1.086       .  S
C626        H628   1.086       .  S
C629        C630   1.344       .  D
C629        H631   1.087       .  S
C630        H632   1.087       .  S
C633        C634   1.346       .  D
C633        H635   1.087       .  S
C634        H636   1.086       .  S
C637        C638   1.349       .  D
C637        H639   1.086       .  S
C638        H640   1.087       .  S
C641        C642   1.336       .  D
C641        H643   1.088       .  S
C642        H644   1.087       .  S
C645        C646   1.345       .  D
C645        H647   1.086       .  S
C646        H648   1.087       .  S
C649        C650   1.340       .  D
C649        H651   1.086       .  S
C650        H652   1.087       .  S
C653        C654   1.353       .  D
C653        H655   1.086       .  S
C654        H656   1.086       .  S
C657        C658   1.348       .  D
C657        H659   1.086       .  S
C658        H660   1.086       .  S
C661        C662   1.341       .  D
C661        H663   1.087       .  S
C662        H664   1.086       .  S
C665        C666   1.341       .  D
C665        H667   1.087       .  S
C666        H668   1.087       .  S
C669        C670   1.340       .  D
C669        H671   1.087       .  S
C670        H672   1.087       .  S
C673        C674   1.342       .  D
C673        H675   1.087       .  S
C674        H676   1.087       .  S
C677        C678   1.355       .  D
C677        H679   1.086       .  S
C678        H680   1.086       .  S
C681        C682   1.342       .  D
C681        H683   1.087       .  S
C682        H684   1.086       .  S
C685        C686   1.345       .  D
C685        H687   1.087       .  S
C686        H688   1.087       .  S
C689        C690   1.343       .  D
C689        H691   1.087       .  S
C690        H692   1.086       .  S
C693        C694   1.346       .  D
C693        H695   1.087       .  S
C694        H696   1.086       .  S
C697        C698   1.346       .  D
C697        H699   1.087       .  S
C698        H700   1.086       .  S
C701        C702   1.343       .  D
C701        H703   1.087       .  S
C702        H704   1.087       .  S
C705        C706   1.341       .  D
C705        H707   1.087       .  S
C706        H708   1.087       .  S
C709        C710   1.344       .  D
C709        H711   1.086       .  S
C710        H712   1.087       .  S
C713        C714   1.347       .  D
C713        H715   1.086       .  S
C714        H716   1.086       .  S
C717        C718   1.339       .  D
C717        H719   1.087       .  S
C718        H720   1.087       .  S
C721        C722   1.341       .  D
C721        H723   1.086       .  S
C722        H724   1.087       .  S
C725        C726   1.351       .  D
C725        H727   1.086       .  S
C726        H728   1.087       .  S
C729        C730   1.339       .  D
C729        H731   1.087       .  S
C730        H732   1.087       .  S
C733        C734   1.346       .  D
C733        H735   1.087       .  S
C734        H736   1.086       .  S
C737        C738   1.344       .  D
C737        H739   1.087       .  S
C738        H740   1.086       .  S
C741        C742   1.340       .  D
C741        H743   1.087       .  S
C742        H744   1.086       .  S
C745        C746   1.339       .  D
C745        H747   1.087       .  S
C746        H748   1.087       .  S
C749        C750   1.338       .  D
C749        H751   1.087       .  S
C750        H752   1.087       .  S
C753        C754   1.346       .  D
C753        H755   1.087       .  S
C754        H756   1.087       .  S
C757        C758   1.344       .  D
C757        H759   1.086       .  S
C758        H760   1.087       .  S
C761        C762   1.343       .  D
C761        H763   1.087       .  S
C762        H764   1.087       .  S
C765        C766   1.338       .  D
C765        H767   1.087       .  S
C766        H768   1.087       .  S
C769        C770   1.340       .  D
C769        H771   1.087       .  S
C770        H772   1.087       .  S
C773        C774   1.336       .  D
C773        H775   1.087       .  S
C774        H776   1.087       .  S
C777        C778   1.336       .  D
C777        H779   1.087       .  S
C778        H780   1.087       .  S
C781        C782   1.341       .  D
C781        H783   1.088       .  S
C782        H784   1.086       .  S
C785        C786   1.342       .  D
C785        H787   1.087       .  S
C786        H788   1.086       .  S
C789        C790   1.346       .  D
C789        H791   1.087       .  S
C790        H792   1.086       .  S
C793        C794   1.341       .  D
C793        H795   1.087       .  S
C794        H796   1.086       .  S
C797        C798   1.350       .  D
C797        H799   1.086       .  S
C798        H800   1.086       .  S
C801        C802   1.341       .  D
C801        H803   1.087       .  S
C802        H804   1.087       .  S
C805        C806   1.344       .  D
C805        H807   1.087       .  S
C806        H808   1.087       .  S
C809        C810   1.347       .  D
C809        H811   1.086       .  S
C810        H812   1.087       .  S
C813        C814   1.349       .  D
C813        H815   1.086       .  S
C814        H816   1.086       .  S
C817        C818   1.345       .  D
C817        H819   1.086       .  S
C818        H820   1.086       .  S
C821        C822   1.343       .  D
C821        H823   1.087       .  S
C822        H824   1.087       .  S
C825        C826   1.343       .  D
C825        H827   1.086       .  S
C826        H828   1.087       .  S
C829        C830   1.344       .  D
C829        H831   1.086       .  S
C830        H832   1.087       .  S
C833        C834   1.347       .  D
C833        H835   1.086       .  S
C834        H836   1.086       .  S
C837        C838   1.345       .  D
C837        H839   1.087       .  S
C838        H840   1.087       .  S
C841        C842   1.337       .  D
C841        H843   1.087       .  S
C842        H844   1.087       .  S
C845        C846   1.340       .  D
C845        H847   1.086       .  S
C846        H848   1.088       .  S
C849        C850   1.341       .  D
C849        H851   1.087       .  S
C850        H852   1.086       .  S
C853        C854   1.344       .  D
C853        H855   1.087       .  S
C854        H856   1.086       .  S
C857        C858   1.349       .  D
C857        H859   1.086       .  S
C858        H860   1.086       .  S
C861        C862   1.341       .  D
C861        H863   1.087       .  S
C862        H864   1.087       .  S
C865        C866   1.339       .  D
C865        H867   1.087       .  S
C866        H868   1.087       .  S
C869        C870   1.353       .  D
C869        H871   1.087       .  S
C870        H872   1.086       .  S
C873        C874   1.339       .  D
C873        H875   1.087       .  S
C874        H876   1.087       .  S
C877        C878   1.347       .  D
C877        H879   1.087       .  S
C878        H880   1.086       .  S
C881        C882   1.347       .  D
C881        H883   1.087       .  S
C882        H884   1.087       .  S
C885        C886   1.346       .  D
C885        H887   1.087       .  S
C886        H888   1.086       .  S
C889        C890   1.344       .  D
C889        H891   1.086       .  S
C890        H892   1.087       .  S
C893        C894   1.346       .  D
C893        H895   1.086       .  S
C894        H896   1.087       .  S
C897        C898   1.343       .  D
C897        H899   1.087       .  S
C898        H900   1.087       .  S
C901        C902   1.352       .  D
C901        H903   1.086       .  S
C902        H904   1.086       .  S
C905        C906   1.345       .  D
C905        H907   1.087       .  S
C906        H908   1.086       .  S
C909        C910   1.345       .  D
C909        H911   1.087       .  S
C910        H912   1.086       .  S
