geometry optimzed in LAMMPS
_audit_creation_date              2020-12-01 
_audit_creation_method            'lammps2cif' 
_symmetry_space_group_name_H-M    'P1' 
_symmetry_Int_Tables_number       1 
_symmetry_cell_setting            triclinic 
loop_ 
_symmetry_equiv_pos_as_xyz 
  x,y,z 
_cell_length_a                    46.38461269 
_cell_length_b                    24.553442074804288 
_cell_length_c                    44.61661453558042 
_cell_angle_alpha                 89.96594256348267 
_cell_angle_beta                  89.73178807971675 
_cell_angle_gamma                 89.88466652560946 
loop_ 
_atom_site_label 
_atom_site_type_symbol 
_atom_site_fract_x 
_atom_site_fract_y 
_atom_site_fract_z 
_atom_site_charge 
C1          C  0.27267412  0.47743478  0.86450502     0.80100
N2          N  0.27148768  0.47562083  0.83408983    -0.78200
C3          C  0.25466970  0.51075925  0.81853314     0.82500
N4          N  0.23880718  0.54810220  0.83374739    -0.78200
C5          C  0.23952289  0.55067876  0.86415523     0.82600
N6          N  0.25655921  0.51512701  0.87951815    -0.79900
O7          O  0.46279274  0.11667248  0.96540454    -0.78600
C8          C  0.00004855  0.00964191  0.03540635     0.82400
O9          O  0.06016409  0.08105741  0.93593413    -0.79700
O10         O  0.04091825  0.89569349  0.96792040    -0.81200
O11         O  0.44241103  0.93128961  0.93666512    -0.81000
O12         O  0.44027816  0.06889471  0.93021457    -0.79700
Zn13       Zn  0.99794000  0.07238945  0.97644429     1.55700
O14         O  0.46877861  0.89175128  0.97224723    -0.81100
Cd15       Cd  0.46629625  0.00041261  0.92551823     1.59700
Cd16       Cd  0.03637587  0.01209164  0.92623412     1.59600
O17         O  0.47847064  0.99691618  0.88061479    -0.81000
O18         O  0.00103691  0.00732545  0.95179575    -1.91500
Cd19       Cd  0.00428051  0.94142667  0.97789058     1.59900
O20         O  0.02574432  0.01295517  0.88142922    -0.81000
O21         O  0.00484662  0.96412672  0.02253039    -0.79700
C22         C  0.05557374  0.11929878  0.95466879     0.82900
C23         C  0.44219800  0.11100477  0.94684417     0.82500
O24         O  0.99592535  0.05313623  0.02039267    -0.78600
C25         C  0.44652674  0.89297289  0.95556787     0.83300
O26         O  0.03293958  0.12019263  0.97097986    -0.78700
C27         C  0.00245010  0.00467942  0.86711097     0.83500
C28         C  0.06146565  0.90295622  0.94923079     0.83800
O29         O  0.06253739  0.94499773  0.93249705    -0.81100
C30         C  0.26813850  0.54090887  0.03750985     0.80100
N31         N  0.26684344  0.54284627  0.06791965    -0.78200
C32         C  0.24888841  0.50980863  0.08355315     0.82500
N33         N  0.23203153  0.47431717  0.06842636    -0.78200
C34         C  0.23285466  0.47156588  0.03801723     0.82600
N35         N  0.25101601  0.50508268  0.02255402    -0.79900
C36         C  0.47962463  0.03917781  0.36584258     0.80100
N37         N  0.47913866  0.03899757  0.33541320    -0.78200
C38         C  0.99636463  0.00510947  0.31936891     0.82500
N39         N  0.01437724  0.97085631  0.33414078    -0.78200
C40         C  0.01511899  0.97001205  0.36461803     0.82600
N41         N  0.99768336  0.00441866  0.38042189    -0.79900
O42         O  0.29257500  0.40479615  0.46656773    -0.78600
C43         C  0.25262239  0.51124098  0.53485038     0.82400
O44         O  0.19472016  0.44009471  0.43542319    -0.79700
O45         O  0.21379205  0.62499912  0.46759909    -0.81200
O46         O  0.31235342  0.59093401  0.43560296    -0.81000
O47         O  0.31602823  0.45330819  0.43211693    -0.79700
Zn48       Zn  0.25628270  0.44761351  0.47602525     1.55700
O49         O  0.28547187  0.63060658  0.47091465    -0.81100
Cd50       Cd  0.28923465  0.52013586  0.42575694     1.59700
Cd51       Cd  0.21868316  0.50905046  0.42616514     1.59600
O52         O  0.27772727  0.52014495  0.38078520    -0.81000
O53         O  0.25389204  0.51329623  0.45161329    -1.91500
Cd54       Cd  0.25052408  0.57972716  0.47729657     1.59900
O55         O  0.23011827  0.50752814  0.38157481    -0.81000
O56         O  0.24979271  0.55728631  0.52193195    -0.79700
C57         C  0.19949309  0.40001898  0.45286468     0.82900
C58         C  0.31394491  0.41128816  0.44883057     0.83700
O59         O  0.25580802  0.46731247  0.51994036    -0.78600
C60         C  0.30773041  0.62982615  0.45404109     0.83300
O61         O  0.22214564  0.39786609  0.46891374    -0.78700
C62         C  0.25376998  0.51343387  0.36730476     0.83500
C63         C  0.19324734  0.61784351  0.44911771     0.83800
O64         O  0.19220938  0.57593412  0.43232278    -0.81100
C65         C  0.48469552  0.98354568  0.53732641     0.80100
N66         N  0.00140017  0.01973564  0.52194439    -0.78200
C67         C  0.01907715  0.05453520  0.53693802     0.82500
N68         N  0.01974721  0.05289046  0.56738339    -0.78200
C69         C  0.00322640  0.01718761  0.58298314     0.82600
N70         N  0.48584719  0.98264330  0.56776325    -0.79900
C71         C  0.03813797  0.09323761  0.52067496    -0.03500
C72         C  0.05748470  0.12597305  0.53687953    -0.09300
C73         C  0.07614029  0.16152899  0.52208695    -0.16900
C74         C  0.07586921  0.16530870  0.49084517     0.25200
C75         C  0.05655050  0.13344593  0.47435903    -0.18600
C76         C  0.03776502  0.09754736  0.48918211    -0.07500
C77         C  0.09581119  0.20186833  0.47633359    -0.13900
C78         C  0.11378029  0.23398196  0.46790619    -0.13700
C79         C  0.13596306  0.27357133  0.46181298     0.25100
C80         C  0.12973427  0.32054519  0.44526013    -0.19100
C81         C  0.15062467  0.36114577  0.44172529    -0.07500
C82         C  0.17799215  0.35548369  0.45493406    -0.03600
C83         C  0.18422042  0.30758555  0.47100546    -0.08900
C84         C  0.16335340  0.26696649  0.47437892    -0.16600
H85         H  0.05846982  0.12392764  0.56109473     0.11600
H86         H  0.09095305  0.18597438  0.53509066     0.10800
H87         H  0.05610901  0.13611034  0.45012957     0.10800
H88         H  0.02311908  0.07308980  0.47602018     0.11300
H89         H  0.10855424  0.32632184  0.43561824     0.11400
H90         H  0.14509564  0.39753240  0.42926731     0.11300
H91         H  0.20507765  0.30180763  0.48134624     0.11500
H92         H  0.16838503  0.23091425  0.48737882     0.10300
C93         C  0.32873664  0.67527166  0.45644535    -0.03500
C94         C  0.35594676  0.67249689  0.44239058    -0.09300
C95         C  0.37615254  0.71428956  0.44634220    -0.16900
C96         C  0.36936582  0.75954922  0.46417502     0.25200
C97         C  0.34212075  0.76319402  0.47761894    -0.18600
C98         C  0.32198809  0.72149821  0.47382179    -0.07500
C99         C  0.39074626  0.80062762  0.47045198    -0.13900
C100        C  0.40805362  0.83401123  0.47880231    -0.13700
C101        C  0.42782766  0.87151420  0.49273438     0.25100
C102        C  0.44155820  0.91265992  0.47620819    -0.19100
C103        C  0.46032230  0.94908137  0.49048034    -0.07500
C104        C  0.46542646  0.94485947  0.52150341    -0.03600
C105        C  0.45158344  0.90313064  0.53773154    -0.08900
C106        C  0.43302422  0.86688663  0.52346615    -0.16600
H107        H  0.36186005  0.63751600  0.42891579     0.11600
H108        H  0.39723092  0.71080175  0.43595639     0.10800
H109        H  0.33661254  0.79783377  0.49157067     0.10800
H110        H  0.30123501  0.72520721  0.48485580     0.11300
H111        H  0.43769319  0.91673041  0.45238559     0.11400
H112        H  0.47057509  0.98072378  0.47731864     0.11300
H113        H  0.45503847  0.89832144  0.56157204     0.11500
H114        H  0.42257850  0.83526977  0.53651300     0.10300
C115        C  0.17025347  0.65965968  0.44643256    -0.03500
C116        C  0.17291178  0.71073892  0.46048386    -0.09300
C117        C  0.15209078  0.75133195  0.45601618    -0.16900
C118        C  0.12828056  0.74127318  0.43765234     0.25200
C119        C  0.12512166  0.69017063  0.42422481    -0.18600
C120        C  0.14590891  0.64968695  0.42854535    -0.07500
C121        C  0.10796229  0.78401581  0.43089017    -0.13900
C122        C  0.09135933  0.81852787  0.42230782    -0.13700
C123        C  0.07246677  0.85785602  0.40853691     0.25100
C124        C  0.07612601  0.87025473  0.37816443    -0.19100
C125        C  0.05756609  0.90690163  0.36405147    -0.07500
C126        C  0.03503029  0.93208732  0.38014051    -0.03600
C127        C  0.03164991  0.91993536  0.41080878    -0.08900
C128        C  0.05021283  0.88282814  0.42488230    -0.16600
H129        H  0.19141516  0.71980915  0.47430789     0.11600
H130        H  0.15486141  0.79084441  0.46639362     0.10800
H131        H  0.10686062  0.68195222  0.40987146     0.10800
H132        H  0.14311664  0.61083934  0.41746386     0.11300
H133        H  0.09325056  0.85122109  0.36527692     0.11400
H134        H  0.06093031  0.91551440  0.34048807     0.11300
H135        H  0.01445161  0.93844588  0.42379282     0.11500
H136        H  0.04710359  0.87340866  0.44839840     0.10300
C137        C  0.33645722  0.36827634  0.44694670    -0.03500
C138        C  0.33485913  0.32140591  0.46511275    -0.09300
C139        C  0.35489003  0.27907568  0.46168457    -0.16900
C140        C  0.37682204  0.28302052  0.44014148     0.25200
C141        C  0.37898932  0.32999479  0.42248135    -0.18600
C142        C  0.35903204  0.37234713  0.42587072    -0.07500
C143        C  0.39589200  0.23766676  0.43449809    -0.13900
C144        C  0.41102421  0.20035241  0.42640802    -0.13700
C145        C  0.42771839  0.15796786  0.41218281     0.25100
C146        C  0.44752019  0.12632837  0.42829710    -0.19100
C147        C  0.46414016  0.08665826  0.41351900    -0.07500
C148        C  0.46117232  0.07850121  0.38243026    -0.03600
C149        C  0.44085520  0.11004110  0.36670456    -0.08900
C150        C  0.42433868  0.14930877  0.38145474    -0.16600
H151        H  0.31778343  0.31690075  0.48155267     0.11600
H152        H  0.35287782  0.24280563  0.47536981     0.10800
H153        H  0.39575213  0.33339137  0.40558961     0.10800
H154        H  0.36091185  0.40770483  0.41148154     0.11300
H155        H  0.45032750  0.13267224  0.45212960     0.11400
H156        H  0.47958975  0.06315695  0.42628897     0.11300
H157        H  0.43782036  0.10485113  0.34282884     0.11500
H158        H  0.40907806  0.17342877  0.36875052     0.10300
C159        C  0.24820630  0.51161155  0.11674417    -0.03500
C160        C  0.26449444  0.55055904  0.13240501    -0.09300
C161        C  0.26466234  0.55099769  0.16371858    -0.16900
C162        C  0.24860579  0.51258488  0.17979621     0.25200
C163        C  0.23200812  0.47418705  0.16448877    -0.18600
C164        C  0.23174963  0.47370588  0.13316662    -0.07500
C165        C  0.24954528  0.51205853  0.21198367    -0.13900
C166        C  0.25055622  0.51155491  0.23894954    -0.13700
C167        C  0.25152337  0.51130952  0.27113445     0.25100
C168        C  0.22587830  0.50928198  0.28767012    -0.19100
C169        C  0.22665397  0.50978789  0.31894459    -0.07500
C170        C  0.25315725  0.51246943  0.33413844    -0.03600
C171        C  0.27886199  0.51421480  0.31729787    -0.08900
C172        C  0.27801624  0.51358666  0.28596976    -0.16600
H173        H  0.27730100  0.58047351  0.12050822     0.11600
H174        H  0.27752472  0.58098509  0.17538358     0.10800
H175        H  0.21946585  0.44431800  0.17675583     0.10800
H176        H  0.21895203  0.44320930  0.12186456     0.11300
H177        H  0.20526416  0.50750392  0.27638899     0.11400
H178        H  0.20645852  0.50838980  0.33119402     0.11300
H179        H  0.29959721  0.51607298  0.32829514     0.11500
H180        H  0.29800051  0.51509123  0.27332875     0.10300
C181        C  0.28828756  0.57772830  0.02137207    -0.03500
C182        C  0.30786218  0.60953519  0.03783136    -0.09300
C183        C  0.32655046  0.64541617  0.02336174    -0.16900
C184        C  0.32611334  0.65045314  0.99218226     0.25200
C185        C  0.30698472  0.61867439  0.97538407    -0.18600
C186        C  0.28817706  0.58236207  0.98989385    -0.07500
C187        C  0.34526292  0.68911345  0.97816443    -0.13900
C188        C  0.36241556  0.72336993  0.97047431    -0.13700
C189        C  0.38386630  0.76489049  0.96548829     0.25100
C190        C  0.37940209  0.80640718  0.94446159    -0.19100
C191        C  0.39981986  0.84799108  0.94097663    -0.07500
C192        C  0.42495639  0.84860565  0.95856528    -0.03600
C193        C  0.42923417  0.80644608  0.97950907    -0.08900
C194        C  0.40885541  0.76505019  0.98292290    -0.16600
H195        H  0.30876902  0.60696875  0.06203644     0.11600
H196        H  0.34127667  0.66963339  0.03660000     0.10800
H197        H  0.30646933  0.62219460  0.95119010     0.10800
H198        H  0.27341228  0.55848622  0.97655137     0.11300
H199        H  0.36003824  0.80694641  0.93098581     0.11400
H200        H  0.39581915  0.87981124  0.92469689     0.11300
H201        H  0.44825904  0.80556191  0.99347384     0.11500
H202        H  0.41246890  0.73339442  0.99943042     0.10300
C203        C  0.21405786  0.43191145  0.02239119    -0.03500
C204        C  0.19457009  0.39998185  0.03911600    -0.09300
C205        C  0.17669826  0.36246205  0.02497859    -0.16900
C206        C  0.17790365  0.35595222  0.99389697     0.25200
C207        C  0.19722740  0.38725338  0.97690356    -0.18600
C208        C  0.21522978  0.42510299  0.99106268    -0.07500
C209        C  0.15886062  0.31730121  0.98001340    -0.13900
C210        C  0.14140020  0.28407796  0.97199297    -0.13700
C211        C  0.11933579  0.24422565  0.96638009     0.25100
C212        C  0.12210515  0.20695340  0.94280623    -0.19100
C213        C  0.10117390  0.16665319  0.93864801    -0.07500
C214        C  0.07719290  0.16324278  0.95804040    -0.03600
C215        C  0.07445369  0.20145852  0.98137443    -0.08900
C216        C  0.09540293  0.24149393  0.98552228    -0.16600
H217        H  0.19297651  0.40396109  0.06323463     0.11600
H218        H  0.16182168  0.33853668  0.03835653     0.10800
H219        H  0.19832918  0.38252845  0.95278753     0.10800
H220        H  0.23000538  0.44889311  0.97753159     0.11300
H221        H  0.14058833  0.20858911  0.92790328     0.11400
H222        H  0.10390069  0.13792113  0.92044480     0.11300
H223        H  0.05635669  0.19993226  0.99677023     0.11500
H224        H  0.09310451  0.26996457  0.00393569     0.10300
C225        C  0.00427865  0.01567491  0.61621322    -0.03500
C226        C  0.02064823  0.05404601  0.63224830    -0.09300
C227        C  0.02146849  0.05258746  0.66358606    -0.16900
C228        C  0.00602542  0.01275960  0.67930982     0.25200
C229        C  0.98979113  0.97435901  0.66359236    -0.18600
C230        C  0.98888295  0.97577220  0.63229469    -0.07500
C231        C  0.00652768  0.01140679  0.71156118    -0.13900
C232        C  0.00625678  0.00964156  0.73857154    -0.13700
C233        C  0.00535806  0.00737923  0.77080290     0.25100
C234        C  0.97902676  0.00017421  0.78573147    -0.19100
C235        C  0.97803061  0.99873943  0.81706356    -0.07500
C236        C  0.00341815  0.00460450  0.83388932    -0.03600
C237        C  0.02982621  0.01133319  0.81861720    -0.08900
C238        C  0.03075542  0.01270237  0.78730763    -0.16600
H239        H  0.03273603  0.08535420  0.62063146     0.11600
H240        H  0.03408484  0.08257473  0.67553631     0.10800
H241        H  0.97775138  0.94335710  0.67554380     0.10800
H242        H  0.97612729  0.94553710  0.62073508     0.11300
H243        H  0.95923496  0.99593699  0.77315232     0.11400
H244        H  0.95737188  0.99348752  0.82808132     0.11300
H245        H  0.04979361  0.01583937  0.83083841     0.11500
H246        H  0.05126405  0.01819093  0.77598736     0.10300
C247        C  0.99925096  0.01193255  0.06858960    -0.03500
C248        C  0.00543200  0.96515390  0.08563985    -0.09300
C249        C  0.00452647  0.96700050  0.11691594    -0.16900
C250        C  0.49740234  0.01549070  0.13163999     0.25200
C251        C  0.49127999  0.06236552  0.11494665    -0.18600
C252        C  0.49222013  0.06066620  0.08360283    -0.07500
C253        C  0.49639442  0.01668410  0.16387016    -0.13900
C254        C  0.49591627  0.01541200  0.19087854    -0.13700
C255        C  0.49576940  0.01224585  0.22308643     0.25100
C256        C  0.47517258  0.04109440  0.23970681    -0.19100
C257        C  0.47521946  0.03839369  0.27100252    -0.07500
C258        C  0.99588137  0.00663950  0.28613882    -0.03600
C259        C  0.01630936  0.97729608  0.26917683    -0.08900
C260        C  0.01625342  0.98019613  0.23786805    -0.16600
H261        H  0.01097943  0.92704377  0.07483836     0.11600
H262        H  0.00934054  0.93051139  0.12963000     0.10800
H263        H  0.48574869  0.10014753  0.12613394     0.10800
H264        H  0.48733480  0.09739808  0.07116078     0.11300
H265        H  0.45914828  0.06586249  0.22849017     0.11400
H266        H  0.45909847  0.06132633  0.28330795     0.11300
H267        H  0.03252445  0.95253582  0.28006180     0.11500
H268        H  0.03226323  0.95759627  0.22519162     0.10300
C269        C  0.25343237  0.50810481  0.78537202    -0.03500
C270        C  0.23779405  0.54728871  0.76906875    -0.09300
C271        C  0.23674952  0.54494898  0.73780023    -0.16900
C272        C  0.25122086  0.50342424  0.72239381     0.25200
C273        C  0.26670163  0.46408366  0.73835314    -0.18600
C274        C  0.26783847  0.46637568  0.76963434    -0.07500
C275        C  0.25064549  0.50193339  0.69019034    -0.13900
C276        C  0.25053749  0.50215736  0.66319032    -0.13700
C277        C  0.25085476  0.50421672  0.63099030     0.25100
C278        C  0.25171653  0.55458804  0.61635429    -0.19100
C279        C  0.25227496  0.55690574  0.58507187    -0.07500
C280        C  0.25207966  0.50874167  0.56799648    -0.03600
C281        C  0.25123042  0.45824703  0.58293573    -0.08900
C282        C  0.25057452  0.45606093  0.61424640    -0.16600
H283        H  0.22647985  0.57998003  0.78041749     0.11600
H284        H  0.22476299  0.57568940  0.72563361     0.10800
H285        H  0.27801242  0.43179948  0.72661693     0.10800
H286        H  0.27999886  0.43546622  0.78144511     0.11300
H287        H  0.25199643  0.59210020  0.62912981     0.11400
H288        H  0.25298840  0.59640379  0.57428588     0.11300
H289        H  0.25095631  0.42044123  0.57045431     0.11500
H290        H  0.24990968  0.41685246  0.62538104     0.10300
C291        C  0.42036724  0.15497427  0.94409097    -0.03500
C292        C  0.41961111  0.19846442  0.96467505    -0.09300
C293        C  0.39991196  0.24127409  0.96114461    -0.16900
C294        C  0.38077381  0.24125368  0.93698703     0.25200
C295        C  0.38115980  0.19788878  0.91662452    -0.18600
C296        C  0.40071780  0.15499278  0.92016550    -0.07500
C297        C  0.36149337  0.28646206  0.93203054    -0.13900
C298        C  0.34550179  0.32261515  0.92428789    -0.13700
C299        C  0.32702797  0.36212314  0.91010497     0.25100
C300        C  0.32288919  0.35871211  0.87917410    -0.19100
C301        C  0.30523954  0.39617697  0.86458168    -0.07500
C302        C  0.29125843  0.43795549  0.88067895    -0.03600
C303        C  0.29542436  0.44118113  0.91189493    -0.08900
C304        C  0.31327558  0.40344099  0.92652074    -0.16600
H305        H  0.43441441  0.19967849  0.98335611     0.11600
H306        H  0.39989055  0.27468393  0.97699401     0.10800
H307        H  0.36656297  0.19758083  0.89773213     0.10800
H308        H  0.40080935  0.12239372  0.90382773     0.11300
H309        H  0.33337113  0.32692605  0.86624046     0.11400
H310        H  0.30254405  0.39215170  0.84059399     0.11300
H311        H  0.28503214  0.47285295  0.92495354     0.11500
H312        H  0.31633298  0.40649034  0.95051582     0.10300
C313        C  0.22118684  0.59121914  0.87997790    -0.03500
C314        C  0.20491629  0.62898599  0.86330852    -0.09300
C315        C  0.18667061  0.66600650  0.87765004    -0.16900
C316        C  0.18428572  0.66613120  0.90888332     0.25200
C317        C  0.20062290  0.62933037  0.92583241    -0.18600
C318        C  0.21902630  0.59208009  0.91147629    -0.07500
C319        C  0.16472354  0.70401939  0.92297502    -0.13900
C320        C  0.14756479  0.73776062  0.93140811    -0.13700
C321        C  0.12683621  0.78013976  0.93756920     0.25100
C322        C  0.10496082  0.77262861  0.95891584    -0.19100
C323        C  0.08391630  0.81295209  0.96325431    -0.07500
C324        C  0.08449272  0.86122662  0.94619137    -0.03600
C325        C  0.10686892  0.86856426  0.92515062    -0.08900
C326        C  0.12779969  0.82833374  0.92088240    -0.16600
H327        H  0.20605126  0.62982007  0.83906762     0.11600
H328        H  0.17421468  0.69436954  0.86429752     0.10800
H329        H  0.19898930  0.62915052  0.95005938     0.10800
H330        H  0.23124519  0.56365407  0.92498615     0.11300
H331        H  0.10391210  0.73533494  0.97185822     0.11400
H332        H  0.06698289  0.80595985  0.97958691     0.11300
H333        H  0.10800617  0.90509272  0.91158882     0.11500
H334        H  0.14452163  0.83449604  0.90418473     0.10300
C335        C  0.77267436  0.47743484  0.86450504     0.80100
N336        N  0.77148791  0.47562070  0.83408985    -0.78200
C337        C  0.75466998  0.51075912  0.81853309     0.82500
N338        N  0.73880748  0.54810219  0.83374729    -0.78200
C339        C  0.73952317  0.55067888  0.86415513     0.82600
N340        N  0.75655945  0.51512717  0.87951811    -0.79900
O341        O  0.96279284  0.11667251  0.96540452    -0.78600
C342        C  0.50004856  0.00964177  0.03540635     0.82400
O343        O  0.56016409  0.08105740  0.93593412    -0.79700
O344        O  0.54091823  0.89569347  0.96792015    -0.81200
O345        O  0.94241097  0.93128977  0.93666515    -0.81000
O346        O  0.94027811  0.06889486  0.93021464    -0.79700
Zn347      Zn  0.49793994  0.07238942  0.97644429     1.55700
O348        O  0.96877857  0.89175126  0.97224717    -0.81100
Cd349      Cd  0.96629623  0.00041285  0.92551837     1.59700
Cd350      Cd  0.53637593  0.01209165  0.92623398     1.59600
O351        O  0.97847056  0.99691624  0.88061490    -0.81000
O352        O  0.50103693  0.00732541  0.95179566    -1.91500
Cd353      Cd  0.50428056  0.94142668  0.97789055     1.59900
O354        O  0.52574440  0.01295520  0.88142910    -0.81000
O355        O  0.50484674  0.96412662  0.02253039    -0.79700
C356        C  0.55557370  0.11929875  0.95466880     0.82900
C357        C  0.94219804  0.11100490  0.94684424     0.82500
O358        O  0.49592527  0.05313607  0.02039266    -0.78600
C359        C  0.94652671  0.89297292  0.95556781     0.83300
O360        O  0.53293954  0.12019255  0.97097986    -0.78700
C361        C  0.50245017  0.00467941  0.86711086     0.83500
C362        C  0.56146564  0.90295622  0.94923055     0.83800
O363        O  0.56253743  0.94499777  0.93249687    -0.81100
C364        C  0.76813851  0.54090880  0.03750980     0.80100
N365        N  0.76684335  0.54284641  0.06791960    -0.78200
C366        C  0.74888827  0.50980881  0.08355309     0.82500
N367        N  0.73203143  0.47431727  0.06842631    -0.78200
C368        C  0.73285470  0.47156575  0.03801719     0.82600
N369        N  0.75101612  0.50508243  0.02255400    -0.79900
C370        C  0.97962468  0.03917784  0.36584258     0.80100
N371        N  0.97913874  0.03899765  0.33541320    -0.78200
C372        C  0.49636451  0.00510929  0.31936892     0.82500
N373        N  0.51437713  0.97085617  0.33414080    -0.78200
C374        C  0.51511892  0.97001199  0.36461804     0.82600
N375        N  0.49768331  0.00441862  0.38042189    -0.79900
O376        O  0.79257499  0.40479613  0.46656760    -0.78600
C377        C  0.75262235  0.51124058  0.53485036     0.82400
O378        O  0.69472008  0.44009485  0.43542315    -0.79700
O379        O  0.71379199  0.62499899  0.46759924    -0.81200
O380        O  0.81235338  0.59093402  0.43560292    -0.81000
O381        O  0.81602820  0.45330815  0.43211679    -0.79700
Zn382      Zn  0.75628271  0.44761328  0.47602521     1.55700
O383        O  0.78547184  0.63060641  0.47091471    -0.81100
Cd384      Cd  0.78923466  0.52013585  0.42575689     1.59700
Cd385      Cd  0.71868317  0.50905048  0.42616511     1.59600
O386        O  0.77772726  0.52014493  0.38078507    -0.81000
O387        O  0.75389204  0.51329618  0.45161333    -1.91500
Cd388      Cd  0.75052407  0.57972706  0.47729670     1.59900
O389        O  0.73011826  0.50752816  0.38157472    -0.81000
O390        O  0.74979266  0.55728594  0.52193199    -0.79700
C391        C  0.69949306  0.40001897  0.45286451     0.82900
C392        C  0.81394488  0.41128812  0.44883042     0.83700
O393        O  0.75580796  0.46731208  0.51994032    -0.78600
C394        C  0.80773036  0.62982609  0.45404110     0.83300
O395        O  0.72214566  0.39786596  0.46891351    -0.78700
C396        C  0.75376995  0.51343387  0.36730463     0.83500
C397        C  0.69324730  0.61784349  0.44911781     0.83800
O398        O  0.69220937  0.57593417  0.43232281    -0.81100
C399        C  0.98469547  0.98354562  0.53732653     0.80100
N400        N  0.50140020  0.01973578  0.52194432    -0.78200
C401        C  0.51907721  0.05453522  0.53693798     0.82500
N402        N  0.51974737  0.05289023  0.56738333    -0.78200
C403        C  0.50322649  0.01718747  0.58298305     0.82600
N404        N  0.98584716  0.98264331  0.56776338    -0.79900
C405        C  0.53813802  0.09323765  0.52067493    -0.03500
C406        C  0.55748513  0.12597236  0.53687945    -0.09300
C407        C  0.57614074  0.16152819  0.52208684    -0.16900
C408        C  0.57586932  0.16530856  0.49084510     0.25200
C409        C  0.55655027  0.13344645  0.47435899    -0.18600
C410        C  0.53776470  0.09754810  0.48918212    -0.07500
C411        C  0.59581125  0.20186831  0.47633353    -0.13900
C412        C  0.61378031  0.23398201  0.46790612    -0.13700
C413        C  0.63596305  0.27357142  0.46181284     0.25100
C414        C  0.62973415  0.32054548  0.44526019    -0.19100
C415        C  0.65062457  0.36114602  0.44172532    -0.07500
C416        C  0.67799214  0.35548367  0.45493384    -0.03600
C417        C  0.68422049  0.30758536  0.47100504    -0.08900
C418        C  0.66335344  0.26696641  0.47437859    -0.16600
H419        H  0.55847052  0.12392646  0.56109463     0.11600
H420        H  0.59095379  0.18597302  0.53509050     0.10800
H421        H  0.55610852  0.13611134  0.45012956     0.10800
H422        H  0.52311838  0.07309125  0.47602025     0.11300
H423        H  0.60855405  0.32632236  0.43561852     0.11400
H424        H  0.64509546  0.39753288  0.42926756     0.11300
H425        H  0.70507778  0.30180726  0.48134564     0.11500
H426        H  0.66838508  0.23091409  0.48737841     0.10300
C427        C  0.82873657  0.67527166  0.45644540    -0.03500
C428        C  0.85594655  0.67249725  0.44239034    -0.09300
C429        C  0.87615236  0.71428992  0.44634198    -0.16900
C430        C  0.86936579  0.75954917  0.46417516     0.25200
C431        C  0.84212082  0.76319372  0.47761932    -0.18600
C432        C  0.82198816  0.72149787  0.47382217    -0.07500
C433        C  0.89074628  0.80062748  0.47045216    -0.13900
C434        C  0.90805361  0.83401112  0.47880246    -0.13700
C435        C  0.92782756  0.87151418  0.49273455     0.25100
C436        C  0.94155850  0.91265924  0.47620825    -0.19100
C437        C  0.96032260  0.94908067  0.49048041    -0.07500
C438        C  0.96542634  0.94485942  0.52150358    -0.03600
C439        C  0.95158289  0.90313123  0.53773182    -0.08900
C440        C  0.93302366  0.86688725  0.52346642    -0.16600
H441        H  0.86185975  0.63751660  0.42891534     0.11600
H442        H  0.89723063  0.71080239  0.43595592     0.10800
H443        H  0.83661270  0.79783320  0.49157125     0.10800
H444        H  0.80123521  0.72520653  0.48485646     0.11300
H445        H  0.93769383  0.91672923  0.45238557     0.11400
H446        H  0.97057573  0.98072257  0.47731862     0.11300
H447        H  0.95503759  0.89832250  0.56157241     0.11500
H448        H  0.92257758  0.83527089  0.53651331     0.10300
C449        C  0.67025344  0.65965971  0.44643268    -0.03500
C450        C  0.67291186  0.71073897  0.46048394    -0.09300
C451        C  0.65209087  0.75133204  0.45601636    -0.16900
C452        C  0.62828065  0.74127339  0.43765248     0.25200
C453        C  0.62512171  0.69017091  0.42422490    -0.18600
C454        C  0.64590885  0.64968707  0.42854552    -0.07500
C455        C  0.60796246  0.78401611  0.43089024    -0.13900
C456        C  0.59135953  0.81852817  0.42230784    -0.13700
C457        C  0.57246695  0.85785636  0.40853696     0.25100
C458        C  0.57612587  0.87025444  0.37816437    -0.19100
C459        C  0.55756588  0.90690118  0.36405139    -0.07500
C460        C  0.53503028  0.93208733  0.38014053    -0.03600
C461        C  0.53165015  0.91993586  0.41080889    -0.08900
C462        C  0.55021318  0.88282884  0.42488242    -0.16600
H463        H  0.69141531  0.71980915  0.47430786     0.11600
H464        H  0.65486155  0.79084447  0.46639382     0.10800
H465        H  0.60686074  0.68195271  0.40987145     0.10800
H466        H  0.64311650  0.61083943  0.41746406     0.11300
H467        H  0.59325022  0.85122042  0.36527679     0.11400
H468        H  0.56092989  0.91551344  0.34048791     0.11300
H469        H  0.51445195  0.93844656  0.42379299     0.11500
H470        H  0.54710412  0.87340969  0.44839858     0.10300
C471        C  0.83645716  0.36827630  0.44694654    -0.03500
C472        C  0.83485913  0.32140593  0.46511264    -0.09300
C473        C  0.85489002  0.27907571  0.46168442    -0.16900
C474        C  0.87682197  0.28302053  0.44014125     0.25200
C475        C  0.87898920  0.32999477  0.42248110    -0.18600
C476        C  0.85903192  0.37234707  0.42587050    -0.07500
C477        C  0.89589196  0.23766682  0.43449788    -0.13900
C478        C  0.91102420  0.20035246  0.42640788    -0.13700
C479        C  0.92771848  0.15796802  0.41218272     0.25100
C480        C  0.94752035  0.12632869  0.42829701    -0.19100
C481        C  0.96414032  0.08665851  0.41351893    -0.07500
C482        C  0.96117237  0.07850124  0.38243024    -0.03600
C483        C  0.94085518  0.11004099  0.36670454    -0.08900
C484        C  0.92433869  0.14930876  0.38145469    -0.16600
H485        H  0.81778346  0.31690080  0.48155264     0.11600
H486        H  0.85287788  0.24280572  0.47536971     0.10800
H487        H  0.89575199  0.33339136  0.40558933     0.10800
H488        H  0.86091168  0.40770475  0.41148129     0.11300
H489        H  0.95032770  0.13267265  0.45212950     0.11400
H490        H  0.97958995  0.06315732  0.42628886     0.11300
H491        H  0.93782025  0.10485082  0.34282887     0.11500
H492        H  0.90907801  0.17342865  0.36875051     0.10300
C493        C  0.74820616  0.51161171  0.11674408    -0.03500
C494        C  0.76449389  0.55055980  0.13240490    -0.09300
C495        C  0.76466172  0.55099853  0.16371846    -0.16900
C496        C  0.74860548  0.51258524  0.17979608     0.25200
C497        C  0.73200825  0.47418672  0.16448864    -0.18600
C498        C  0.73174986  0.47370543  0.13316650    -0.07500
C499        C  0.74954492  0.51205894  0.21198353    -0.13900
C500        C  0.75055593  0.51155534  0.23894940    -0.13700
C501        C  0.75152318  0.51130986  0.27113431     0.25100
C502        C  0.72587815  0.50928167  0.28767003    -0.19100
C503        C  0.72665387  0.50978746  0.31894449    -0.07500
C504        C  0.75315716  0.51246942  0.33413831    -0.03600
C505        C  0.77886186  0.51421532  0.31729770    -0.08900
C506        C  0.77801607  0.51358743  0.28596960    -0.16600
H507        H  0.77730015  0.58047473  0.12050808     0.11600
H508        H  0.77752382  0.58098639  0.17538347     0.10800
H509        H  0.71946626  0.44431724  0.17675568     0.10800
H510        H  0.71895262  0.44320835  0.12186442     0.11300
H511        H  0.70526401  0.50750324  0.27638892     0.11400
H512        H  0.70645844  0.50838900  0.33119394     0.11300
H513        H  0.79959708  0.51607384  0.32829496     0.11500
H514        H  0.79800033  0.51509254  0.27332858     0.10300
C515        C  0.78828753  0.57772827  0.02137197    -0.03500
C516        C  0.80786215  0.60953523  0.03783121    -0.09300
C517        C  0.82655041  0.64541620  0.02336153    -0.16900
C518        C  0.82611341  0.65045284  0.99218204     0.25200
C519        C  0.80698482  0.61867397  0.97538389    -0.18600
C520        C  0.78817707  0.58236187  0.98989373    -0.07500
C521        C  0.84526301  0.68911315  0.97816423    -0.13900
C522        C  0.86241564  0.72336978  0.97047428    -0.13700
C523        C  0.88386635  0.76489040  0.96548826     0.25100
C524        C  0.87940216  0.80640691  0.94446144    -0.19100
C525        C  0.89981988  0.84799089  0.94097647    -0.07500
C526        C  0.92495639  0.84860560  0.95856516    -0.03600
C527        C  0.92923419  0.80644612  0.97950899    -0.08900
C528        C  0.90885546  0.76505022  0.98292288    -0.16600
H529        H  0.80876898  0.60696890  0.06203629     0.11600
H530        H  0.84127651  0.66963364  0.03659976     0.10800
H531        H  0.80646952  0.62219391  0.95118989     0.10800
H532        H  0.77341232  0.55848597  0.97655127     0.11300
H533        H  0.86003833  0.80694596  0.93098559     0.11400
H534        H  0.89581913  0.87981105  0.92469672     0.11300
H535        H  0.94825905  0.80556211  0.99347380     0.11500
H536        H  0.91246896  0.73339456  0.99943045     0.10300
C537        C  0.71405786  0.43191143  0.02239113    -0.03500
C538        C  0.69456948  0.39998299  0.03911585    -0.09300
C539        C  0.67669760  0.36246330  0.02497843    -0.16900
C540        C  0.67790353  0.35595238  0.99389690     0.25200
C541        C  0.69722787  0.38725246  0.97690358    -0.18600
C542        C  0.71523028  0.42510203  0.99106270    -0.07500
C543        C  0.65886056  0.31730113  0.98001336    -0.13900
C544        C  0.64140019  0.28407772  0.97199297    -0.13700
C545        C  0.61933570  0.24422555  0.96638007     0.25100
C546        C  0.62210484  0.20695369  0.94280599    -0.19100
C547        C  0.60117362  0.16665346  0.93864783    -0.07500
C548        C  0.57719280  0.16324277  0.95804041    -0.03600
C549        C  0.57445374  0.20145816  0.98137464    -0.08900
C550        C  0.59540301  0.24149351  0.98552248    -0.16600
H551        H  0.69297547  0.40396303  0.06323441     0.11600
H552        H  0.66182058  0.33853876  0.03835631     0.10800
H553        H  0.69833010  0.38252668  0.95278764     0.10800
H554        H  0.73000635  0.44889132  0.97753168     0.11300
H555        H  0.64058787  0.20858963  0.92790288     0.11400
H556        H  0.60390030  0.13792157  0.92044450     0.11300
H557        H  0.55635689  0.19993160  0.99677058     0.11500
H558        H  0.59310476  0.26996386  0.00393608     0.10300
C559        C  0.50427872  0.01567483  0.61621312    -0.03500
C560        C  0.52064856  0.05404554  0.63224821    -0.09300
C561        C  0.52146892  0.05258673  0.66358598    -0.16900
C562        C  0.50602560  0.01275921  0.67930972     0.25200
C563        C  0.48979105  0.97435906  0.66359221    -0.18600
C564        C  0.48888282  0.97577240  0.63229454    -0.07500
C565        C  0.50652787  0.01140632  0.71156108    -0.13900
C566        C  0.50625694  0.00964107  0.73857145    -0.13700
C567        C  0.50535819  0.00737862  0.77080280     0.25100
C568        C  0.47902688  0.00017366  0.78573134    -0.19100
C569        C  0.47803070  0.99873909  0.81706344    -0.07500
C570        C  0.50341823  0.00460436  0.83388922    -0.03600
C571        C  0.52982629  0.01133291  0.81861712    -0.08900
C572        C  0.53075553  0.01270193  0.78730755    -0.16600
H573        H  0.53273654  0.08535353  0.62063139     0.11600
H574        H  0.53408554  0.08257355  0.67553628     0.10800
H575        H  0.47775114  0.94335732  0.67554359     0.10800
H576        H  0.47612700  0.94553762  0.62073486     0.11300
H577        H  0.45923509  0.99593641  0.77315218     0.11400
H578        H  0.45737198  0.99348715  0.82808118     0.11300
H579        H  0.54979367  0.01583920  0.83083833     0.11500
H580        H  0.55126413  0.01819063  0.77598728     0.10300
C581        C  0.49925094  0.01193240  0.06858960    -0.03500
C582        C  0.50543228  0.96515391  0.08563986    -0.09300
C583        C  0.50452674  0.96700051  0.11691595    -0.16900
C584        C  0.99740238  0.01549082  0.13163999     0.25200
C585        C  0.99128031  0.06236581  0.11494666    -0.18600
C586        C  0.99222044  0.06066649  0.08360284    -0.07500
C587        C  0.99639449  0.01668415  0.16387016    -0.13900
C588        C  0.99591633  0.01541211  0.19087854    -0.13700
C589        C  0.99576947  0.01224610  0.22308643     0.25100
C590        C  0.97517256  0.04109442  0.23970681    -0.19100
C591        C  0.97521948  0.03839375  0.27100253    -0.07500
C592        C  0.49588127  0.00663928  0.28613883    -0.03600
C593        C  0.51630926  0.97729583  0.26917684    -0.08900
C594        C  0.51625330  0.98019577  0.23786805    -0.16600
H595        H  0.51097996  0.92704390  0.07483837     0.11600
H596        H  0.50934106  0.93051153  0.12963003     0.10800
H597        H  0.98574925  0.10014790  0.12613397     0.10800
H598        H  0.98733534  0.09739847  0.07116079     0.11300
H599        H  0.95914815  0.06586232  0.22849017     0.11400
H600        H  0.95909847  0.06132627  0.28330796     0.11300
H601        H  0.53252435  0.95253562  0.28006181     0.11500
H602        H  0.53226307  0.95759579  0.22519162     0.10300
C603        C  0.75343261  0.50810452  0.78537198    -0.03500
C604        C  0.73779422  0.54728829  0.76906868    -0.09300
C605        C  0.73674969  0.54494847  0.73780016    -0.16900
C606        C  0.75122109  0.50342375  0.72239379     0.25200
C607        C  0.76670188  0.46408325  0.73835315    -0.18600
C608        C  0.76783872  0.46637535  0.76963434    -0.07500
C609        C  0.75064561  0.50193273  0.69019032    -0.13900
C610        C  0.75053756  0.50215679  0.66319029    -0.13700
C611        C  0.75085489  0.50421619  0.63099027     0.25100
C612        C  0.75171639  0.55458755  0.61635427    -0.19100
C613        C  0.75227483  0.55690530  0.58507186    -0.07500
C614        C  0.75207972  0.50874124  0.56799645    -0.03600
C615        C  0.75123074  0.45824658  0.58293566    -0.08900
C616        C  0.75057495  0.45606043  0.61424633    -0.16600
H617        H  0.72648003  0.57997963  0.78041740     0.11600
H618        H  0.72476315  0.57568882  0.72563351     0.10800
H619        H  0.77801262  0.43179897  0.72661698     0.10800
H620        H  0.77999907  0.43546587  0.78144513     0.11300
H621        H  0.75199607  0.59209970  0.62912978     0.11400
H622        H  0.75298806  0.59640339  0.57428588     0.11300
H623        H  0.75095671  0.42044080  0.57045421     0.11500
H624        H  0.74991034  0.41685188  0.62538093     0.10300
C625        C  0.92036733  0.15497447  0.94409115    -0.03500
C626        C  0.91961134  0.19846472  0.96467517    -0.09300
C627        C  0.89991222  0.24127445  0.96114476    -0.16900
C628        C  0.88077396  0.24125398  0.93698727     0.25200
C629        C  0.88115985  0.19788897  0.91662482    -0.18600
C630        C  0.90071780  0.15499293  0.92016578    -0.07500
C631        C  0.86149349  0.28646237  0.93203083    -0.13900
C632        C  0.84550189  0.32261548  0.92428823    -0.13700
C633        C  0.82702812  0.36212341  0.91010522     0.25100
C634        C  0.82288933  0.35871217  0.87917436    -0.19100
C635        C  0.80523978  0.39617709  0.86458185    -0.07500
C636        C  0.79125866  0.43795567  0.88067906    -0.03600
C637        C  0.79542449  0.44118136  0.91189506    -0.08900
C638        C  0.81327577  0.40344139  0.92652091    -0.16600
H639        H  0.93441477  0.19967884  0.98335615     0.11600
H640        H  0.89989089  0.27468439  0.97699409     0.10800
H641        H  0.86656294  0.19758089  0.89773248     0.10800
H642        H  0.90080926  0.12239379  0.90382805     0.11300
H643        H  0.83337122  0.32692599  0.86624079     0.11400
H644        H  0.80254434  0.39215178  0.84059417     0.11300
H645        H  0.78503217  0.47285308  0.92495366     0.11500
H646        H  0.81633320  0.40649089  0.95051596     0.10300
C647        C  0.72118718  0.59121949  0.87997773    -0.03500
C648        C  0.70491681  0.62898655  0.86330829    -0.09300
C649        C  0.68667104  0.66600701  0.87764973    -0.16900
C650        C  0.68428591  0.66613154  0.90888298     0.25200
C651        C  0.70062300  0.62933067  0.92583214    -0.18600
C652        C  0.71902646  0.59208036  0.91147610    -0.07500
C653        C  0.66472363  0.70401973  0.92297458    -0.13900
C654        C  0.64756489  0.73776098  0.93140769    -0.13700
C655        C  0.62683630  0.78014005  0.93756886     0.25100
C656        C  0.60496086  0.77262867  0.95891543    -0.19100
C657        C  0.58391626  0.81295199  0.96325391    -0.07500
C658        C  0.58449269  0.86122662  0.94619108    -0.03600
C659        C  0.60686892  0.86856447  0.92515037    -0.08900
C660        C  0.62779972  0.82833405  0.92088209    -0.16600
H661        H  0.70605193  0.62982070  0.83906740     0.11600
H662        H  0.67421518  0.69437004  0.86429717     0.10800
H663        H  0.69898927  0.62915076  0.95005911     0.10800
H664        H  0.73124523  0.56365422  0.92498600     0.11300
H665        H  0.60391217  0.73533494  0.97185775     0.11400
H666        H  0.56698281  0.80595961  0.97958646     0.11300
H667        H  0.60800615  0.90509300  0.91158867     0.11500
H668        H  0.64452166  0.83449645  0.90418439     0.10300
loop_ 
_geom_bond_atom_site_label_1 
_geom_bond_atom_site_label_2 
_geom_bond_distance 
_geom_bond_site_symmetry_2 
_ccdc_geom_bond_type 
C1            N2   1.359       .  A
C1            N6   1.363       .  A
C1          C302   1.485       .  S
N2            C3   1.355       .  A
C3            N4   1.355       .  A
C3          C269   1.482       .  S
N4            C5   1.359       .  A
C5            N6   1.363       .  A
C5          C313   1.485       .  S
O7           C23   1.275       .  A
O7         Zn347   2.021       .  S
C8          C247   1.482   1_455  S
C8           O24   1.275   1_455  A
C8           O21   1.276   1_545  A
O9           C22   1.274       .  A
O9          Cd16   2.070       .  S
O10          C28   1.276       .  A
O10         Cd19   2.082       .  S
O11          C25   1.278       .  A
O11         Cd15   2.087   1_565  S
O12          C23   1.276       .  A
O12         Cd15   2.078       .  S
Zn13         O24   2.019   1_556  S
Zn13         O26   2.019   1_655  S
Zn13        O341   2.020       .  S
Zn13         O18   1.945   1_655  S
O14          C25   1.276       .  A
O14        Cd353   2.068       .  S
Cd15         O17   2.081   1_545  S
Cd15        O352   2.005       .  S
Cd16         O20   2.061       .  S
Cd16         O29   2.064   1_545  S
Cd16         O18   1.996       .  S
O17         C361   1.277   1_565  A
O18         Cd19   1.999   1_545  S
O18        Cd349   2.005   1_455  S
Cd19         O21   2.069   1_556  S
Cd19        O348   2.068   1_455  S
O20          C27   1.275       .  A
C22         C214   1.483       .  S
C22          O26   1.275       .  A
C23         C291   1.484       .  S
C25         C192   1.486       .  S
C27         C236   1.483       .  S
C27         O351   1.277   1_445  A
C28         C324   1.484       .  S
C28          O29   1.275       .  A
C30          N31   1.359       .  A
C30          N35   1.363       .  A
C30         C181   1.485       .  S
N31          C32   1.355       .  A
C32          N33   1.354       .  A
C32         C159   1.482       .  S
N33          C34   1.359       .  A
C34          N35   1.364       .  A
C34         C203   1.485       .  S
C36          N37   1.358       .  A
C36         N375   1.362       .  A
C36         C148   1.485       .  S
N37         C372   1.355       .  A
C38          N39   1.357   1_645  A
C38         N371   1.355       .  A
C38         C258   1.483       .  S
N39          C40   1.361       .  A
C40          N41   1.363   1_465  A
C40         C126   1.484       .  S
N41         C370   1.362       .  A
O42          C58   1.276       .  A
O42         Zn48   2.026       .  S
C43         C280   1.480       .  S
C43          O59   1.276       .  A
C43          O56   1.276       .  A
O44          C57   1.274       .  A
O44         Cd51   2.068       .  S
O45          C63   1.276       .  A
O45         Cd54   2.080       .  S
O46          C60   1.278       .  A
O46         Cd50   2.092       .  S
O47          C58   1.276       .  A
O47         Cd50   2.077       .  S
Zn48         O59   2.018       .  S
Zn48         O61   2.028       .  S
Zn48         O53   1.949       .  S
O49          C60   1.275       .  A
O49         Cd54   2.067       .  S
Cd50         O52   2.079       .  S
Cd50         O53   2.007       .  S
Cd51         O55   2.057       .  S
Cd51         O64   2.066       .  S
Cd51         O53   1.996       .  S
O52          C62   1.277       .  A
O53         Cd54   1.999       .  S
Cd54         O56   2.066       .  S
O55          C62   1.274       .  A
C57          C82   1.484       .  S
C57          O61   1.275       .  A
C58         C137   1.486       .  S
C60          C93   1.487       .  S
C62         C170   1.480       .  S
C63         C115   1.484       .  S
C63          O64   1.274       .  A
C65          N70   1.359       .  A
C65         N400   1.363   1_565  A
C65         C104   1.486       .  S
N66          C67   1.363       .  A
N66         C399   1.363   1_445  A
C67          N68   1.359       .  A
C67          C71   1.486       .  S
N68          C69   1.355       .  A
C69         N404   1.356   1_445  A
C69         C225   1.484       .  S
N70         C403   1.356   1_565  A
C71          C72   1.408       .  A
C71          C76   1.409       .  A
C72          C73   1.394       .  A
C72          H85   1.083       .  S
C73          C74   1.397       .  A
C73          H86   1.084       .  S
C74          C75   1.402       .  A
C74          C77   1.441       .  S
C75          C76   1.404       .  A
C75          H87   1.083       .  S
C76          H88   1.083       .  S
C77          C78   1.207       .  T
C78          C79   1.442       .  S
C79          C80   1.400       .  A
C79          C84   1.400       .  A
C80          C81   1.400       .  A
C80          H89   1.083       .  S
C81          C82   1.409       .  A
C81          H90   1.083       .  S
C82          C83   1.407       .  A
C83          C84   1.399       .  A
C83          H91   1.083       .  S
C84          H92   1.084       .  S
C93          C94   1.408       .  A
C93          C98   1.409       .  A
C94          C95   1.403       .  A
C94         H107   1.083       .  S
C95          C96   1.402       .  A
C95         H108   1.083       .  S
C96          C97   1.399       .  A
C96          C99   1.444       .  S
C97          C98   1.398       .  A
C97         H109   1.084       .  S
C98         H110   1.083       .  S
C99         C100   1.209       .  T
C100        C101   1.444       .  S
C101        C102   1.403       .  A
C101        C106   1.398       .  A
C102        C103   1.404       .  A
C102        H111   1.083       .  S
C103        C104   1.409       .  A
C103        H112   1.083       .  S
C104        C105   1.408       .  A
C105        C106   1.395       .  A
C105        H113   1.083       .  S
C106        H114   1.084       .  S
C115        C116   1.408       .  A
C115        C120   1.408       .  A
C116        C117   1.401       .  A
C116        H129   1.083       .  S
C117        C118   1.401       .  A
C117        H130   1.083       .  S
C118        C119   1.399       .  A
C118        C121   1.442       .  S
C119        C120   1.397       .  A
C119        H131   1.084       .  S
C120        H132   1.083       .  S
C121        C122   1.207       .  T
C122        C123   1.442       .  S
C123        C124   1.398       .  A
C123        C128   1.402       .  A
C124        C125   1.396       .  A
C124        H133   1.084       .  S
C125        C126   1.408       .  A
C125        H134   1.083       .  S
C126        C127   1.408       .  A
C127        C128   1.402       .  A
C127        H135   1.083       .  S
C128        H136   1.083       .  S
C137        C138   1.409       .  A
C137        C142   1.408       .  A
C138        C139   1.401       .  A
C138        H151   1.083       .  S
C139        C140   1.400       .  A
C139        H152   1.083       .  S
C140        C141   1.400       .  A
C140        C143   1.442       .  S
C141        C142   1.399       .  A
C141        H153   1.084       .  S
C142        H154   1.083       .  S
C143        C144   1.207       .  T
C144        C145   1.442       .  S
C145        C146   1.402       .  A
C145        C150   1.397       .  A
C146        C147   1.404       .  A
C146        H155   1.083       .  S
C147        C148   1.409       .  A
C147        H156   1.083       .  S
C148        C149   1.408       .  A
C149        C150   1.394       .  A
C149        H157   1.083       .  S
C150        H158   1.084       .  S
C159        C160   1.408       .  A
C159        C164   1.408       .  A
C160        C161   1.397       .  A
C160        H173   1.083       .  S
C161        C162   1.399       .  A
C161        H174   1.084       .  S
C162        C163   1.399       .  A
C162        C165   1.437       .  S
C163        C164   1.398       .  A
C163        H175   1.084       .  S
C164        H176   1.083       .  S
C165        C166   1.204       .  T
C166        C167   1.437       .  S
C167        C168   1.398       .  A
C167        C172   1.400       .  A
C168        C169   1.396       .  A
C168        H177   1.084       .  S
C169        C170   1.408       .  A
C169        H178   1.083       .  S
C170        C171   1.407       .  A
C171        C172   1.399       .  A
C171        H179   1.083       .  S
C172        H180   1.083       .  S
C181        C182   1.408       .  A
C181        C186   1.409   1_554  A
C182        C183   1.393       .  A
C182        H195   1.083       .  S
C183        C184   1.397   1_554  A
C183        H196   1.084       .  S
C184        C185   1.403       .  A
C184        C187   1.442       .  S
C185        C186   1.404       .  A
C185        H197   1.083       .  S
C186        H198   1.083       .  S
C187        C188   1.207       .  T
C188        C189   1.442       .  S
C189        C190   1.401       .  A
C189        C194   1.399       .  A
C190        C191   1.402       .  A
C190        H199   1.083       .  S
C191        C192   1.409       .  A
C191        H200   1.083       .  S
C192        C193   1.408       .  A
C193        C194   1.397       .  A
C193        H201   1.083       .  S
C194        H202   1.084       .  S
C203        C204   1.409       .  A
C203        C208   1.409   1_554  A
C204        C205   1.394       .  A
C204        H217   1.083       .  S
C205        C206   1.397   1_554  A
C205        H218   1.084       .  S
C206        C207   1.402       .  A
C206        C209   1.440       .  S
C207        C208   1.403       .  A
C207        H219   1.083       .  S
C208        H220   1.083       .  S
C209        C210   1.206       .  T
C210        C211   1.440       .  S
C211        C212   1.400       .  A
C211        C216   1.399       .  A
C212        C213   1.401       .  A
C212        H221   1.083       .  S
C213        C214   1.409       .  A
C213        H222   1.083       .  S
C214        C215   1.407       .  A
C215        C216   1.397       .  A
C215        H223   1.083       .  S
C216        H224   1.084   1_556  S
C225        C226   1.409       .  A
C225        C230   1.408   1_445  A
C226        C227   1.399       .  A
C226        H239   1.083       .  S
C227        C228   1.400       .  A
C227        H240   1.084       .  S
C228        C229   1.399   1_445  A
C228        C231   1.440       .  S
C229        C230   1.398       .  A
C229        H241   1.084       .  S
C230        H242   1.083       .  S
C231        C232   1.206       .  T
C232        C233   1.440       .  S
C233        C234   1.400   1_455  A
C233        C238   1.399       .  A
C234        C235   1.399   1_545  A
C234        H243   1.083   1_545  S
C235        C236   1.407   1_665  A
C235        H244   1.083       .  S
C236        C237   1.409       .  A
C237        C238   1.398       .  A
C237        H245   1.083       .  S
C238        H246   1.084       .  S
C247        C248   1.407   1_645  A
C247        C586   1.409       .  A
C248        C249   1.397       .  A
C248        H261   1.083       .  S
C249        C584   1.398   1_465  A
C249        H262   1.084       .  S
C250        C251   1.400       .  A
C250        C583   1.398   1_545  A
C250        C253   1.439       .  S
C251        C252   1.400       .  A
C251        H263   1.083       .  S
C252        C581   1.409       .  A
C252        H264   1.083       .  S
C253        C254   1.206       .  T
C254        C255   1.439       .  S
C255        C256   1.398       .  A
C255        C594   1.400   1_545  A
C256        C257   1.398       .  A
C256        H265   1.084       .  S
C257        C592   1.409       .  A
C257        H266   1.083       .  S
C258        C259   1.407   1_645  A
C258        C591   1.409       .  A
C259        C260   1.399       .  A
C259        H267   1.083       .  S
C260        C589   1.400   1_465  A
C260        H268   1.084       .  S
C269        C270   1.408       .  A
C269        C274   1.408       .  A
C270        C271   1.397       .  A
C270        H283   1.083       .  S
C271        C272   1.399       .  A
C271        H284   1.084       .  S
C272        C273   1.399       .  A
C272        C275   1.438       .  S
C273        C274   1.398       .  A
C273        H285   1.084       .  S
C274        H286   1.083       .  S
C275        C276   1.205       .  T
C276        C277   1.438       .  S
C277        C278   1.399       .  A
C277        C282   1.399       .  A
C278        C279   1.397       .  A
C278        H287   1.084       .  S
C279        C280   1.407       .  A
C279        H288   1.083       .  S
C280        C281   1.408       .  A
C281        C282   1.398       .  A
C281        H289   1.083       .  S
C282        H290   1.083       .  S
C291        C292   1.409       .  A
C291        C296   1.407       .  A
C292        C293   1.401       .  A
C292        H305   1.083       .  S
C293        C294   1.400       .  A
C293        H306   1.083       .  S
C294        C295   1.400       .  A
C294        C297   1.442       .  S
C295        C296   1.398       .  A
C295        H307   1.084       .  S
C296        H308   1.083       .  S
C297        C298   1.207       .  T
C298        C299   1.441       .  S
C299        C300   1.397       .  A
C299        C304   1.402       .  A
C300        C301   1.393       .  A
C300        H309   1.084       .  S
C301        C302   1.408       .  A
C301        H310   1.083       .  S
C302        C303   1.409       .  A
C303        C304   1.404       .  A
C303        H311   1.083       .  S
C304        H312   1.083       .  S
C313        C314   1.409       .  A
C313        C318   1.409       .  A
C314        C315   1.394       .  A
C314        H327   1.083       .  S
C315        C316   1.397       .  A
C315        H328   1.084       .  S
C316        C317   1.402       .  A
C316        C319   1.441       .  S
C317        C318   1.403       .  A
C317        H329   1.083       .  S
C318        H330   1.083       .  S
C319        C320   1.207       .  T
C320        C321   1.441       .  S
C321        C322   1.401       .  A
C321        C326   1.398       .  A
C322        C323   1.402       .  A
C322        H331   1.083       .  S
C323        C324   1.409       .  A
C323        H332   1.083       .  S
C324        C325   1.408       .  A
C325        C326   1.396       .  A
C325        H333   1.083       .  S
C326        H334   1.084       .  S
C335        N336   1.359       .  A
C335        N340   1.363       .  A
C335        C636   1.485       .  S
N336        C337   1.355       .  A
C337        N338   1.355       .  A
C337        C603   1.482       .  S
N338        C339   1.359       .  A
C339        N340   1.363       .  A
C339        C647   1.485       .  S
O341        C357   1.275       .  A
C342        C581   1.482       .  S
C342        O358   1.275       .  A
C342        O355   1.276   1_545  A
O343        C356   1.274       .  A
O343       Cd350   2.070       .  S
O344        C362   1.276       .  A
O344       Cd353   2.082       .  S
O345        C359   1.278       .  A
O345       Cd349   2.087   1_565  S
O346        C357   1.276       .  A
O346       Cd349   2.078       .  S
Zn347       O358   2.019   1_556  S
Zn347       O360   2.019       .  S
Zn347       O352   1.945       .  S
O348        C359   1.276       .  A
Cd349       O351   2.081   1_545  S
Cd350       O354   2.061       .  S
Cd350       O363   2.064   1_545  S
Cd350       O352   1.996       .  S
O352       Cd353   1.999   1_545  S
Cd353       O355   2.069   1_556  S
O354        C361   1.275       .  A
C356        C548   1.483       .  S
C356        O360   1.275       .  A
C357        C625   1.484       .  S
C359        C526   1.486       .  S
C361        C570   1.483       .  S
C362        C658   1.484       .  S
C362        O363   1.275       .  A
C364        N365   1.359       .  A
C364        N369   1.363       .  A
C364        C515   1.485       .  S
N365        C366   1.355       .  A
C366        N367   1.354       .  A
C366        C493   1.482       .  S
N367        C368   1.359       .  A
C368        N369   1.364       .  A
C368        C537   1.485       .  S
C370        N371   1.358       .  A
C370        C482   1.485       .  S
C372        N373   1.357   1_545  A
C372        C592   1.483       .  S
N373        C374   1.361       .  A
C374        N375   1.363   1_565  A
C374        C460   1.484       .  S
O376        C392   1.276       .  A
O376       Zn382   2.026       .  S
C377        C614   1.480       .  S
C377        O393   1.276       .  A
C377        O390   1.276       .  A
O378        C391   1.274       .  A
O378       Cd385   2.068       .  S
O379        C397   1.276       .  A
O379       Cd388   2.080       .  S
O380        C394   1.278       .  A
O380       Cd384   2.092       .  S
O381        C392   1.276       .  A
O381       Cd384   2.077       .  S
Zn382       O393   2.018       .  S
Zn382       O395   2.028       .  S
Zn382       O387   1.949       .  S
O383        C394   1.275       .  A
O383       Cd388   2.067       .  S
Cd384       O386   2.079       .  S
Cd384       O387   2.007       .  S
Cd385       O389   2.057       .  S
Cd385       O398   2.066       .  S
Cd385       O387   1.996       .  S
O386        C396   1.277       .  A
O387       Cd388   1.999       .  S
Cd388       O390   2.066       .  S
O389        C396   1.274       .  A
C391        C416   1.484       .  S
C391        O395   1.275       .  A
C392        C471   1.486       .  S
C394        C427   1.487       .  S
C396        C504   1.480       .  S
C397        C449   1.484       .  S
C397        O398   1.274       .  A
C399        N404   1.359       .  A
C399        C438   1.486       .  S
N400        C401   1.363       .  A
C401        N402   1.359       .  A
C401        C405   1.486       .  S
N402        C403   1.355       .  A
C403        C559   1.484       .  S
C405        C406   1.408       .  A
C405        C410   1.409       .  A
C406        C407   1.394       .  A
C406        H419   1.083       .  S
C407        C408   1.397       .  A
C407        H420   1.084       .  S
C408        C409   1.402       .  A
C408        C411   1.441       .  S
C409        C410   1.404       .  A
C409        H421   1.083       .  S
C410        H422   1.083       .  S
C411        C412   1.207       .  T
C412        C413   1.442       .  S
C413        C414   1.400       .  A
C413        C418   1.400       .  A
C414        C415   1.400       .  A
C414        H423   1.083       .  S
C415        C416   1.409       .  A
C415        H424   1.083       .  S
C416        C417   1.407       .  A
C417        C418   1.399       .  A
C417        H425   1.083       .  S
C418        H426   1.084       .  S
C427        C428   1.408       .  A
C427        C432   1.409       .  A
C428        C429   1.403       .  A
C428        H441   1.083       .  S
C429        C430   1.402       .  A
C429        H442   1.083       .  S
C430        C431   1.399       .  A
C430        C433   1.444       .  S
C431        C432   1.398       .  A
C431        H443   1.084       .  S
C432        H444   1.083       .  S
C433        C434   1.209       .  T
C434        C435   1.444       .  S
C435        C436   1.403       .  A
C435        C440   1.398       .  A
C436        C437   1.404       .  A
C436        H445   1.083       .  S
C437        C438   1.409       .  A
C437        H446   1.083       .  S
C438        C439   1.408       .  A
C439        C440   1.395       .  A
C439        H447   1.083       .  S
C440        H448   1.084       .  S
C449        C450   1.408       .  A
C449        C454   1.408       .  A
C450        C451   1.401       .  A
C450        H463   1.083       .  S
C451        C452   1.401       .  A
C451        H464   1.083       .  S
C452        C453   1.399       .  A
C452        C455   1.442       .  S
C453        C454   1.397       .  A
C453        H465   1.084       .  S
C454        H466   1.083       .  S
C455        C456   1.207       .  T
C456        C457   1.442       .  S
C457        C458   1.398       .  A
C457        C462   1.402       .  A
C458        C459   1.396       .  A
C458        H467   1.084       .  S
C459        C460   1.408       .  A
C459        H468   1.083       .  S
C460        C461   1.408       .  A
C461        C462   1.402       .  A
C461        H469   1.083       .  S
C462        H470   1.083       .  S
C471        C472   1.409       .  A
C471        C476   1.408       .  A
C472        C473   1.401       .  A
C472        H485   1.083       .  S
C473        C474   1.400       .  A
C473        H486   1.083       .  S
C474        C475   1.400       .  A
C474        C477   1.442       .  S
C475        C476   1.399       .  A
C475        H487   1.084       .  S
C476        H488   1.083       .  S
C477        C478   1.207       .  T
C478        C479   1.442       .  S
C479        C480   1.402       .  A
C479        C484   1.397       .  A
C480        C481   1.404       .  A
C480        H489   1.083       .  S
C481        C482   1.409       .  A
C481        H490   1.083       .  S
C482        C483   1.408       .  A
C483        C484   1.394       .  A
C483        H491   1.083       .  S
C484        H492   1.084       .  S
C493        C494   1.408       .  A
C493        C498   1.408       .  A
C494        C495   1.397       .  A
C494        H507   1.083       .  S
C495        C496   1.399       .  A
C495        H508   1.084       .  S
C496        C497   1.399       .  A
C496        C499   1.437       .  S
C497        C498   1.398       .  A
C497        H509   1.084       .  S
C498        H510   1.083       .  S
C499        C500   1.204       .  T
C500        C501   1.437       .  S
C501        C502   1.398       .  A
C501        C506   1.400       .  A
C502        C503   1.396       .  A
C502        H511   1.084       .  S
C503        C504   1.408       .  A
C503        H512   1.083       .  S
C504        C505   1.407       .  A
C505        C506   1.399       .  A
C505        H513   1.083       .  S
C506        H514   1.083       .  S
C515        C516   1.408       .  A
C515        C520   1.409   1_554  A
C516        C517   1.393       .  A
C516        H529   1.083       .  S
C517        C518   1.397   1_554  A
C517        H530   1.084       .  S
C518        C519   1.403       .  A
C518        C521   1.442       .  S
C519        C520   1.404       .  A
C519        H531   1.083       .  S
C520        H532   1.083       .  S
C521        C522   1.207       .  T
C522        C523   1.442       .  S
C523        C524   1.401       .  A
C523        C528   1.399       .  A
C524        C525   1.402       .  A
C524        H533   1.083       .  S
C525        C526   1.409       .  A
C525        H534   1.083       .  S
C526        C527   1.408       .  A
C527        C528   1.397       .  A
C527        H535   1.083       .  S
C528        H536   1.084       .  S
C537        C538   1.409       .  A
C537        C542   1.409   1_554  A
C538        C539   1.394       .  A
C538        H551   1.083       .  S
C539        C540   1.397   1_554  A
C539        H552   1.084       .  S
C540        C541   1.402       .  A
C540        C543   1.440       .  S
C541        C542   1.403       .  A
C541        H553   1.083       .  S
C542        H554   1.083       .  S
C543        C544   1.206       .  T
C544        C545   1.440       .  S
C545        C546   1.400       .  A
C545        C550   1.399       .  A
C546        C547   1.401       .  A
C546        H555   1.083       .  S
C547        C548   1.409       .  A
C547        H556   1.083       .  S
C548        C549   1.407       .  A
C549        C550   1.397       .  A
C549        H557   1.083       .  S
C550        H558   1.084   1_556  S
C559        C560   1.409       .  A
C559        C564   1.408   1_545  A
C560        C561   1.399       .  A
C560        H573   1.083       .  S
C561        C562   1.400       .  A
C561        H574   1.084       .  S
C562        C563   1.399   1_545  A
C562        C565   1.440       .  S
C563        C564   1.398       .  A
C563        H575   1.084       .  S
C564        H576   1.083       .  S
C565        C566   1.206       .  T
C566        C567   1.440       .  S
C567        C568   1.400       .  A
C567        C572   1.399       .  A
C568        C569   1.399   1_545  A
C568        H577   1.083   1_545  S
C569        C570   1.407   1_565  A
C569        H578   1.083       .  S
C570        C571   1.409       .  A
C571        C572   1.398       .  A
C571        H579   1.083       .  S
C572        H580   1.084       .  S
C581        C582   1.407   1_545  A
C582        C583   1.397       .  A
C582        H595   1.083       .  S
C583        H596   1.084       .  S
C584        C585   1.400       .  A
C584        C587   1.439       .  S
C585        C586   1.400       .  A
C585        H597   1.083       .  S
C586        H598   1.083       .  S
C587        C588   1.206       .  T
C588        C589   1.439       .  S
C589        C590   1.398       .  A
C590        C591   1.398       .  A
C590        H599   1.084       .  S
C591        H600   1.083       .  S
C592        C593   1.407   1_545  A
C593        C594   1.399       .  A
C593        H601   1.083       .  S
C594        H602   1.084       .  S
C603        C604   1.408       .  A
C603        C608   1.408       .  A
C604        C605   1.397       .  A
C604        H617   1.083       .  S
C605        C606   1.399       .  A
C605        H618   1.084       .  S
C606        C607   1.399       .  A
C606        C609   1.438       .  S
C607        C608   1.398       .  A
C607        H619   1.084       .  S
C608        H620   1.083       .  S
C609        C610   1.205       .  T
C610        C611   1.438       .  S
C611        C612   1.399       .  A
C611        C616   1.399       .  A
C612        C613   1.397       .  A
C612        H621   1.084       .  S
C613        C614   1.407       .  A
C613        H622   1.083       .  S
C614        C615   1.408       .  A
C615        C616   1.398       .  A
C615        H623   1.083       .  S
C616        H624   1.083       .  S
C625        C626   1.409       .  A
C625        C630   1.407       .  A
C626        C627   1.401       .  A
C626        H639   1.083       .  S
C627        C628   1.400       .  A
C627        H640   1.083       .  S
C628        C629   1.400       .  A
C628        C631   1.442       .  S
C629        C630   1.398       .  A
C629        H641   1.084       .  S
C630        H642   1.083       .  S
C631        C632   1.207       .  T
C632        C633   1.441       .  S
C633        C634   1.397       .  A
C633        C638   1.402       .  A
C634        C635   1.393       .  A
C634        H643   1.084       .  S
C635        C636   1.408       .  A
C635        H644   1.083       .  S
C636        C637   1.409       .  A
C637        C638   1.404       .  A
C637        H645   1.083       .  S
C638        H646   1.083       .  S
C647        C648   1.409       .  A
C647        C652   1.409       .  A
C648        C649   1.394       .  A
C648        H661   1.083       .  S
C649        C650   1.397       .  A
C649        H662   1.084       .  S
C650        C651   1.402       .  A
C650        C653   1.441       .  S
C651        C652   1.403       .  A
C651        H663   1.083       .  S
C652        H664   1.083       .  S
C653        C654   1.207       .  T
C654        C655   1.441       .  S
C655        C656   1.401       .  A
C655        C660   1.398       .  A
C656        C657   1.402       .  A
C656        H665   1.083       .  S
C657        C658   1.409       .  A
C657        H666   1.083       .  S
C658        C659   1.408       .  A
C659        C660   1.396       .  A
C659        H667   1.083       .  S
C660        H668   1.084       .  S
