geometry optimzed in LAMMPS
_audit_creation_date              2020-12-01 
_audit_creation_method            'lammps2cif' 
_symmetry_space_group_name_H-M    'P1' 
_symmetry_Int_Tables_number       1 
_symmetry_cell_setting            triclinic 
loop_ 
_symmetry_equiv_pos_as_xyz 
  x,y,z 
_cell_length_a                    41.95667436 
_cell_length_b                    41.83941071510178 
_cell_length_c                    43.00171242431667 
_cell_angle_alpha                 89.99721922883106 
_cell_angle_beta                  89.93838887890826 
_cell_angle_gamma                 81.89873232223269 
loop_ 
_atom_site_label 
_atom_site_type_symbol 
_atom_site_fract_x 
_atom_site_fract_y 
_atom_site_fract_z 
_atom_site_charge 
N1          N  0.05634839  0.49438339  0.44152990    -0.06600
N2          N  0.07409187  0.00426926  0.41934910    -0.58700
N3          N  0.02720981  0.42764892  0.46413304    -0.06300
N4          N  0.02963270  0.39635214  0.45860485    -0.60900
N5          N  0.00958781  0.44403079  0.44261540    -0.05900
N6          N  0.50025046  0.42392009  0.42183473    -0.58700
N7          N  0.07369506  0.47842716  0.46347892    -0.05600
N8          N  0.10461824  0.47690290  0.45724079    -0.61200
C9          C  0.10533674  0.49291615  0.43001549     0.95600
C10         C  0.51284228  0.39425644  0.43216509     0.95300
N11         N  0.01156927  0.44325639  0.05931341    -0.06800
N12         N  0.50166198  0.42371125  0.08007060    -0.59300
N13         N  0.07487164  0.47792215  0.03630676    -0.04500
N14         N  0.10594569  0.47731414  0.04145657    -0.60600
N15         N  0.05795398  0.49400449  0.05848228    -0.06800
N16         N  0.07647299  0.00373553  0.07906673    -0.59600
N17         N  0.02857863  0.42695656  0.03734304    -0.04600
N18         N  0.03084242  0.39565504  0.04259110    -0.60700
Mn19       Mn  0.05179051  0.45155411  0.00032897     1.18400
C20         C  0.51358448  0.39400704  0.06929755     0.97600
C21         C  0.10714152  0.49415588  0.06820422     0.98300
N22         N  0.44967268  0.00026795  0.44249885    -0.06900
N23         N  0.43131679  0.49167624  0.42102955    -0.63200
N24         N  0.48001835  0.06705812  0.46347223    -0.05700
N25         N  0.47633548  0.09825131  0.45721404    -0.63800
N26         N  0.49640595  0.05057420  0.44121539    -0.06400
N27         N  0.00392894  0.07029405  0.41936340    -0.63400
N28         N  0.43298176  0.01696297  0.46444994    -0.05300
N29         N  0.40194103  0.02020384  0.45811897    -0.64100
Mn30       Mn  0.00349773  0.49716184  0.44124828     1.10700
C31         C  0.40047376  0.00428016  0.43091209     0.98900
C32         C  0.99139843  0.09999097  0.42971315     0.98900
N33         N  0.49818110  0.05076617  0.05774382    -0.06400
N34         N  0.00794276  0.07047674  0.07844426    -0.61700
N35         N  0.43397186  0.01699493  0.03729062    -0.05700
N36         N  0.40304336  0.01910351  0.04369939    -0.58500
N37         N  0.45116777  0.00070722  0.05915255    -0.07000
N38         N  0.43338180  0.48958289  0.08141982    -0.61300
N39         N  0.48099099  0.06685758  0.03577126    -0.06000
N40         N  0.47810058  0.09815560  0.04108262    -0.58500
Mn41       Mn  0.50399413  0.99760022  0.05960676     1.20200
Mn42       Mn  0.45654839  0.04252493  0.50042723     1.10100
Cl43       Cl  0.00318436  0.99698893  0.00010831    -0.86500
C44         C  0.99555822  0.10003795  0.06762690     0.95900
C45         C  0.40214683  0.00296547  0.07084140     0.95700
C46         C  0.00230996  0.27511054  0.13476516     0.79700
N47         N  0.00274415  0.24699721  0.11890807    -0.78600
C48         C  0.00241770  0.21874755  0.13433766     0.82200
N49         N  0.00150673  0.21878711  0.16589026    -0.78500
C50         C  0.00105315  0.24667161  0.18213172     0.82300
N51         N  0.00148656  0.27472868  0.16632178    -0.80200
C52         C  0.00095018  0.27664348  0.36493487     0.79700
N53         N  0.99985120  0.24855928  0.38051202    -0.78600
C54         C  0.99812535  0.22062103  0.36489699     0.82200
N55         N  0.99779456  0.22101989  0.33329913    -0.78500
C56         C  0.99893866  0.24885709  0.31730672     0.82300
N57         N  0.00057915  0.27650615  0.33336715    -0.80200
C58         C  0.22664673  0.49871491  0.13409016     0.79700
N59         N  0.25521240  0.49785164  0.11915194    -0.78600
C60         C  0.28310362  0.49644396  0.13531931     0.82200
N61         N  0.28232366  0.49571511  0.16684258    -0.78500
C62         C  0.25390284  0.49678294  0.18229551     0.82300
N63         N  0.22616442  0.49834715  0.16568049    -0.80200
C64         C  0.22553822  0.49826107  0.36498490     0.79700
N65         N  0.25342438  0.49925252  0.38073906    -0.78600
C66         C  0.28169065  0.49928749  0.36537657     0.82200
N67         N  0.28186539  0.49826919  0.33382792    -0.78500
C68         C  0.25425773  0.49741243  0.31757913     0.82300
N69         N  0.22616772  0.49746207  0.33339551    -0.80200
C70         C  0.25347000  0.49659768  0.21691341    -0.06000
C71         C  0.28275436  0.49387408  0.23323527    -0.33400
C72         C  0.28352936  0.49390357  0.26573057     0.35900
C73         C  0.25455846  0.49674985  0.28295902    -0.06300
C74         C  0.22466887  0.99630435  0.26661447    -0.33300
C75         C  0.22397648  0.99622983  0.23407863     0.35800
H76         H  0.30544607  0.49171930  0.22084285     0.16100
O77         O  0.31289352  0.49147864  0.28018931    -0.60800
H78         H  0.20199757  0.99814192  0.27901307     0.16100
O79         O  0.19468728  0.99837836  0.21951045    -0.60900
H80         H  0.18711705  0.02183468  0.21758660     0.43100
H81         H  0.31995784  0.46799252  0.28268119     0.43100
C82         C  0.00015746  0.24675682  0.21671875    -0.06000
C83         C  0.51068243  0.27288974  0.23266412    -0.33400
C84         C  0.51162522  0.27355525  0.26515923     0.35900
C85         C  0.99885304  0.24874724  0.28270646    -0.06300
C86         C  0.00304346  0.21913277  0.26676652    -0.33300
C87         C  0.00390316  0.21792422  0.23427458     0.35800
H88         H  0.51893194  0.29252103  0.21993274     0.16100
O89         O  0.52347015  0.29869467  0.27949894    -0.60800
H90         H  0.00617323  0.19655346  0.27947318     0.16100
O91         O  0.00858858  0.18827826  0.22013906    -0.60900
H92         H  0.03225850  0.18180167  0.21993704     0.43100
H93         H  0.50584683  0.31710612  0.27842202     0.43100
C94         C  0.99338185  0.13059185  0.41289935    -0.06000
C95         C  0.98681368  0.16004494  0.42888518    -0.33400
C96         C  0.98855992  0.18943557  0.41383041     0.35900
C97         C  0.99661815  0.18989819  0.38193068    -0.06300
C98         C  0.50316578  0.16002573  0.36570801    -0.33300
C99         C  0.50127049  0.13076094  0.38087243     0.35800
H100        H  0.98042321  0.16037692  0.45331511     0.16100
O101        O  0.98123460  0.21753121  0.43039459    -0.60800
H102        H  0.50933829  0.15941485  0.34122750     0.16100
O103        O  0.50682517  0.10263340  0.36411639    -0.60900
H104        H  0.48538227  0.09895205  0.35638305     0.43100
H105        H  0.00129322  0.22033228  0.44161616     0.43100
C106        C  0.00297614  0.30698283  0.38227618    -0.06000
C107        C  0.01432314  0.30547644  0.41306461    -0.33400
C108        C  0.01713127  0.33364261  0.42981346     0.35900
C109        C  0.00867144  0.36414440  0.41582891    -0.06300
C110        C  0.49912148  0.36522289  0.38455657    -0.33300
C111        C  0.49662056  0.33703355  0.36781492     0.35800
H112        H  0.02137935  0.28234702  0.42421992     0.16100
O113        O  0.02815299  0.33094227  0.45982922    -0.60800
H114        H  0.49297886  0.38829912  0.37304382     0.16100
O115        O  0.48593186  0.33981156  0.33767872    -0.60900
H116        H  0.46236399  0.33961021  0.33895810     0.43100
H117        H  0.00856108  0.33132485  0.47281348     0.43100
C118        C  0.99852745  0.13073678  0.08370016    -0.06000
C119        C  0.01425349  0.12997006  0.11252868    -0.33400
C120        C  0.01597147  0.15840286  0.12917256     0.35900
C121        C  0.00217450  0.18838753  0.11685170    -0.06300
C122        C  0.48702019  0.18975210  0.08718506    -0.33300
C123        C  0.48520485  0.16127770  0.07066678     0.35800
H124        H  0.02501756  0.10720770  0.12249079     0.16100
O125        O  0.03220848  0.15670052  0.15692352    -0.60800
H126        H  0.47733411  0.21260240  0.07667687     0.16100
O127        O  0.47186575  0.16335267  0.04149864    -0.60900
H128        H  0.44828315  0.16542776  0.04494013     0.43100
H129        H  0.01847622  0.14655574  0.17167734     0.43100
C130        C  0.00394552  0.30560161  0.11774977    -0.06000
C131        C  0.01802411  0.30446626  0.08805712    -0.33400
C132        C  0.02117493  0.33280725  0.07181965     0.35900
C133        C  0.01010107  0.36313907  0.08518557    -0.06300
C134        C  0.49418963  0.36469181  0.11441108    -0.33300
C135        C  0.49078866  0.33638846  0.13062549     0.35800
H136        H  0.02723186  0.28149360  0.07750444     0.16100
O137        O  0.03558964  0.33043647  0.04312399    -0.60800
H138        H  0.48501996  0.38769964  0.12490370     0.16100
O139        O  0.47566617  0.33878699  0.15899439    -0.60900
H140        H  0.45271618  0.33752765  0.15443001     0.43100
H141        H  0.01825644  0.32688239  0.02843125     0.43100
C142        C  0.31216922  0.50013236  0.38267461    -0.06000
C143        C  0.34171353  0.48882496  0.36826755    -0.33400
C144        C  0.37093427  0.48932829  0.38383364     0.35900
C145        C  0.37113695  0.50192096  0.41423567    -0.06300
C146        C  0.34065554  0.01512096  0.42767229    -0.33300
C147        C  0.31142742  0.01394148  0.41236758     0.35800
H148        H  0.34226103  0.47921873  0.34484932     0.16100
O149        O  0.39909881  0.47809297  0.36874149    -0.60800
H150        H  0.34017091  0.02632945  0.45041016     0.16100
O151        O  0.28340664  0.02768781  0.42633908    -0.60900
H152        H  0.27866552  0.01188736  0.44228338     0.43100
H153        H  0.40254771  0.45447345  0.37252221     0.43100
C154        C  0.13552813  0.49605340  0.41318827    -0.06000
C155        C  0.16342894  0.99224659  0.42949368    -0.33400
C156        C  0.19282659  0.99282912  0.41439711     0.35900
C157        C  0.19473342  0.49786602  0.38199145    -0.06300
C158        C  0.16525475  0.50557830  0.36623590    -0.33300
C159        C  0.13586684  0.50471303  0.38152834     0.35800
H160        H  0.16352627  0.98766626  0.45430082     0.16100
O161        O  0.22051048  0.98744105  0.43167525    -0.60800
H162        H  0.16487888  0.51223468  0.34187926     0.16100
O163        O  0.10775864  0.51198932  0.36513752    -0.60900
H164        H  0.10367062  0.49124777  0.35586890     0.43100
H165        H  0.22680092  0.96367013  0.43160571     0.43100
C166        C  0.37303198  0.49796309  0.08767162    -0.06000
C167        C  0.34272802  0.01532803  0.07529284    -0.33400
C168        C  0.31357679  0.01396327  0.09051425     0.35900
C169        C  0.31389404  0.49667423  0.11871010    -0.06300
C170        C  0.34276343  0.48114825  0.13160916    -0.33300
C171        C  0.37218179  0.48144192  0.11618447     0.35800
H172        H  0.34239947  0.02885214  0.05378539     0.16100
O173        O  0.28586696  0.03010686  0.07790274    -0.60800
H174        H  0.34250815  0.46851154  0.15358422     0.16100
O175        O  0.39982844  0.46591683  0.12942343    -0.60900
H176        H  0.40172127  0.44335881  0.12177592     0.43100
H177        H  0.28324656  0.05183372  0.08756540     0.43100
C178        C  0.19634807  0.49971166  0.11616663    -0.06000
C179        C  0.16640458  0.00880268  0.13051874    -0.33400
C180        C  0.13716907  0.00879101  0.11486438     0.35900
C181        C  0.13753387  0.49820087  0.08436463    -0.06300
C182        C  0.16703466  0.48647024  0.07018205    -0.33300
C183        C  0.19621166  0.48736614  0.08562269     0.35800
H184        H  0.16603358  0.01873368  0.15380686     0.16100
O185        O  0.10913817  0.02100877  0.12969221    -0.60800
H186        H  0.16758649  0.47590098  0.04715456     0.16100
O187        O  0.22425164  0.47435225  0.07122113    -0.60900
H188        H  0.23007359  0.49171716  0.05753070     0.43100
H189        H  0.10575919  0.04436925  0.12463029     0.43100
N190        N  0.05600323  0.49354371  0.94148931    -0.06600
N191        N  0.07379058  0.00298604  0.91916438    -0.58700
N192        N  0.02705047  0.42674677  0.96432578    -0.06300
N193        N  0.02943876  0.39544365  0.95875984    -0.60900
N194        N  0.00939257  0.44314456  0.94284726    -0.05900
N195        N  0.49937819  0.42340198  0.92231440    -0.58700
N196        N  0.07341486  0.47770953  0.96346848    -0.05600
N197        N  0.10431784  0.47631295  0.95722753    -0.61200
C198        C  0.10495796  0.49222465  0.92994343     0.95600
C199        C  0.51189787  0.39371899  0.93258233     0.95300
N200        N  0.01134785  0.44387676  0.55903308    -0.06800
N201        N  0.50135937  0.42384481  0.57955795    -0.59300
N202        N  0.07485985  0.47857555  0.53633969    -0.04500
N203        N  0.10590874  0.47832343  0.54136388    -0.60600
N204        N  0.05787875  0.49465467  0.55846942    -0.06800
N205        N  0.07651650  0.00494848  0.57892729    -0.59600
N206        N  0.02849066  0.42761859  0.53712570    -0.04600
N207        N  0.03048548  0.39629280  0.54216194    -0.60700
Mn208      Mn  0.05186942  0.45230205  0.50024466     1.18400
C209        C  0.51334594  0.39418438  0.56870040     0.97600
C210        C  0.10701373  0.49540730  0.56798054     0.98300
N211        N  0.44909603  0.99967535  0.94252007    -0.06900
N212        N  0.43084781  0.49028721  0.92157512    -0.63200
N213        N  0.47965105  0.06654317  0.96281794    -0.05700
N214        N  0.47637658  0.09770831  0.95649707    -0.63800
N215        N  0.49606943  0.04986860  0.94069442    -0.06400
N216        N  0.00407831  0.06944947  0.91883391    -0.63400
N217        N  0.43240013  0.01647920  0.96439372    -0.05300
N218        N  0.40132240  0.01924653  0.95828863    -0.64100
Mn219      Mn  0.00317623  0.49618397  0.94136346     1.10700
C220        C  0.39986134  0.00291038  0.93129869     0.98900
C221        C  0.99169638  0.09925022  0.92907144     0.98900
N222        N  0.49852770  0.05047508  0.55817872    -0.06400
N223        N  0.00810254  0.07042130  0.57882989    -0.61700
N224        N  0.43449342  0.01667841  0.53726038    -0.05700
N225        N  0.40357298  0.01894249  0.54369060    -0.58500
N226        N  0.45164027  0.00024864  0.55906393    -0.07000
N227        N  0.43332321  0.48993085  0.58118929    -0.61300
N228        N  0.48139045  0.06671192  0.53627936    -0.06000
N229        N  0.47918798  0.09800447  0.54134479    -0.58500
Mn230      Mn  0.50447560  0.99737181  0.55954626     1.20200
Mn231      Mn  0.45606269  0.04240535  0.00010754     1.10100
Cl232      Cl  0.00348433  0.99738547  0.50023008    -0.86500
C233        C  0.99608834  0.10000457  0.56783059     0.95900
C234        C  0.40259175  0.00276726  0.57079025     0.95700
C235        C  0.00108242  0.27576040  0.63410961     0.79700
N236        N  0.00182486  0.24744496  0.61849870    -0.78600
C237        C  0.00151910  0.21929933  0.63415597     0.82200
N238        N  0.00057322  0.21974255  0.66568777    -0.78500
C239        C  0.00012045  0.24773683  0.68170523     0.82300
N240        N  0.00025631  0.27573574  0.66570298    -0.80200
C241        C  0.00000808  0.27631311  0.86448301     0.79700
N242        N  0.99913029  0.24807727  0.87988823    -0.78600
C243        C  0.99743851  0.22019514  0.86413671     0.82200
N244        N  0.99691787  0.22080654  0.83253096    -0.78500
C245        C  0.99774752  0.24884230  0.81673464     0.82300
N246        N  0.99938302  0.27639370  0.83292537    -0.80200
C247        C  0.22634030  0.50044158  0.63397868     0.79700
N248        N  0.25494109  0.49947177  0.61908673    -0.78600
C249        C  0.28284611  0.49783344  0.63526179     0.82200
N250        N  0.28202844  0.49693296  0.66679569    -0.78500
C251        C  0.25356778  0.49808444  0.68222999     0.82300
N252        N  0.22581583  0.49991118  0.66557534    -0.80200
C253        C  0.22515117  0.49766037  0.86498330     0.79700
N254        N  0.25304653  0.49827789  0.88080451    -0.78600
C255        C  0.28136851  0.49819436  0.86553828     0.82200
N256        N  0.28161360  0.49744250  0.83396419    -0.78500
C257        C  0.25396434  0.49699299  0.81762910     0.82300
N258        N  0.22581664  0.49715535  0.83338700    -0.80200
C259        C  0.25313007  0.49749013  0.71687870    -0.06000
C260        C  0.28244258  0.49360361  0.73322474    -0.33400
C261        C  0.28322502  0.49312351  0.76573733     0.35900
C262        C  0.25424155  0.49671386  0.78297491    -0.06300
C263        C  0.22404516  0.99968087  0.76637911    -0.33300
C264        C  0.22340497  0.00020388  0.73382770     0.35800
H265        H  0.30515312  0.49084914  0.72083162     0.16100
O266        O  0.31262594  0.48936519  0.78021581    -0.60800
H267        H  0.20131610  0.00260271  0.77874768     0.16100
O268        O  0.19408488  0.00430942  0.71918875    -0.60900
H269        H  0.18806297  0.02800122  0.71722226     0.43100
H270        H  0.31872259  0.46572318  0.78256849     0.43100
C271        C  0.99954886  0.24777087  0.71626516    -0.06000
C272        C  0.49094747  0.27692262  0.73240454    -0.33400
C273        C  0.48995219  0.27778003  0.76492492     0.35900
C274        C  0.99777215  0.24904821  0.78219025    -0.06300
C275        C  0.00612777  0.21988921  0.76611728    -0.33300
C276        C  0.00737458  0.21908536  0.73366503     0.35800
H277        H  0.48462465  0.29930413  0.71974736     0.16100
O278        O  0.48105633  0.30689835  0.77932024    -0.60800
H279        H  0.01244209  0.19747640  0.77872678     0.16100
O280        O  0.01683891  0.19002118  0.71941596    -0.60900
H281        H  0.04058820  0.18830495  0.71758999     0.43100
H282        H  0.45736090  0.30884650  0.78162177     0.43100
C283        C  0.99373031  0.12985105  0.91216783    -0.06000
C284        C  0.98650867  0.15933517  0.92799748    -0.33400
C285        C  0.98790234  0.18877664  0.91291314     0.35900
C286        C  0.99628405  0.18932051  0.88110176    -0.06300
C287        C  0.50391590  0.15974380  0.86531473    -0.33300
C288        C  0.50269166  0.13027391  0.88048112     0.35800
H289        H  0.97978219  0.15967253  0.95234082     0.16100
O290        O  0.97983470  0.21685147  0.92934774    -0.60800
H291        H  0.51057266  0.15934232  0.84095427     0.16100
O292        O  0.50967048  0.10214677  0.86391307    -0.60900
H293        H  0.48880176  0.09798989  0.85512232     0.43100
H294        H  0.99958658  0.22000949  0.94091801     0.43100
C295        C  0.00224806  0.30655958  0.88197421    -0.06000
C296        C  0.01243345  0.30488504  0.91316050    -0.33400
C297        C  0.01547787  0.33292557  0.93003685     0.35900
C298        C  0.00837424  0.36344729  0.91582610    -0.06300
C299        C  0.49705622  0.36523440  0.88517318    -0.33300
C300        C  0.49393079  0.33730126  0.86831202     0.35800
H301        H  0.01837670  0.28172423  0.92455705     0.16100
O302        O  0.02527794  0.33010676  0.96042922    -0.60800
H303        H  0.49078947  0.38843841  0.87392534     0.16100
O304        O  0.48259373  0.34053223  0.83843433    -0.60900
H305        H  0.45888001  0.34193368  0.84030580     0.43100
H306        H  0.00511827  0.33119513  0.97267216     0.43100
C307        C  0.99910174  0.13061833  0.58387061    -0.06000
C308        C  0.00952652  0.12980081  0.61482632    -0.33400
C309        C  0.01062726  0.15831472  0.63143403     0.35900
C310        C  0.00167465  0.18855242  0.61696481    -0.06300
C311        C  0.49191759  0.18938178  0.58573449    -0.33300
C312        C  0.49043537  0.16083713  0.56921078     0.35800
H313        H  0.01631229  0.10693044  0.62654315     0.16100
O314        O  0.02125774  0.15617409  0.66157985    -0.60800
H315        H  0.48471693  0.21222690  0.57410749     0.16100
O316        O  0.48091546  0.16277521  0.53867724    -0.60900
H317        H  0.45704951  0.16669397  0.53930053     0.43100
H318        H  0.00311888  0.14975487  0.67377630     0.43100
C319        C  0.00259085  0.30607465  0.61679718    -0.06000
C320        C  0.01913864  0.30498305  0.58834389    -0.33400
C321        C  0.02250322  0.33332663  0.57215382     0.35900
C322        C  0.00908064  0.36359802  0.58430837    -0.06300
C323        C  0.49194461  0.36457691  0.61260894    -0.33300
C324        C  0.48858422  0.33622628  0.62878243     0.35800
H325        H  0.03025048  0.28208175  0.57889522     0.16100
O326        O  0.03976006  0.33107118  0.54495067    -0.60800
H327        H  0.48122600  0.38747574  0.62234118     0.16100
O328        O  0.47148717  0.33835941  0.65608624    -0.60900
H329        H  0.44914139  0.33598195  0.65004757     0.43100
H330        H  0.02455876  0.32554331  0.52884755     0.43100
C331        C  0.31178403  0.49867690  0.88303504    -0.06000
C332        C  0.34129851  0.48648454  0.86905531    -0.33400
C333        C  0.37046105  0.48678749  0.88479462     0.35900
C334        C  0.37064181  0.50006144  0.91493800    -0.06300
C335        C  0.34002498  0.01357262  0.92800482    -0.33300
C336        C  0.31084616  0.01247205  0.91258464     0.35800
H337        H  0.34184915  0.47639855  0.84582543     0.16100
O338        O  0.39860984  0.47472194  0.87008511    -0.60800
H339        H  0.33950115  0.02500114  0.95064114     0.16100
O340        O  0.28281583  0.02652491  0.92633552    -0.60900
H341        H  0.27787965  0.01092527  0.94239325     0.43100
H342        H  0.40174340  0.45124122  0.87459428     0.43100
C343        C  0.13511923  0.49540794  0.91311215    -0.06000
C344        C  0.16311306  0.99062561  0.92928786    -0.33400
C345        C  0.19247264  0.99137857  0.91418796     0.35900
C346        C  0.19432419  0.49728047  0.88195604    -0.06300
C347        C  0.16485778  0.50481651  0.86614186    -0.33300
C348        C  0.13546923  0.50383580  0.88139806     0.35800
H349        H  0.16325854  0.98578903  0.95405076     0.16100
O350        O  0.22017781  0.98585425  0.93142607    -0.60800
H351        H  0.16449269  0.51132814  0.84174950     0.16100
O352        O  0.10737923  0.51066186  0.86490011    -0.60900
H353        H  0.10366897  0.48979843  0.85563298     0.43100
H354        H  0.22636650  0.96207102  0.93133755     0.43100
C355        C  0.37294584  0.49852064  0.58745483    -0.06000
C356        C  0.34325090  0.01564290  0.57504415    -0.33400
C357        C  0.31400631  0.01484988  0.59024114     0.35900
C358        C  0.31371019  0.49779727  0.61861201    -0.06300
C359        C  0.34258977  0.48256538  0.63175294    -0.33300
C360        C  0.37204356  0.48256948  0.61628043     0.35800
H361        H  0.34310789  0.02881987  0.55334761     0.16100
O362        O  0.28648829  0.03104920  0.57731820    -0.60800
H363        H  0.34232588  0.47038351  0.65396919     0.16100
O364        O  0.39967968  0.46737122  0.62980277    -0.60900
H365        H  0.40152060  0.44460880  0.62275525     0.43100
H366        H  0.28421429  0.05302510  0.58641847     0.43100
C367        C  0.19609058  0.50149503  0.61595460    -0.06000
C368        C  0.16637355  0.01290260  0.62940936    -0.33400
C369        C  0.13720146  0.01265867  0.61367983     0.35900
C370        C  0.13736645  0.49978722  0.58404866    -0.06300
C371        C  0.16688736  0.48773018  0.57008471    -0.33300
C372        C  0.19601832  0.48872085  0.58557117     0.35800
H373        H  0.16597738  0.02367362  0.65234525     0.16100
O374        O  0.10917742  0.02591596  0.62792191    -0.60800
H375        H  0.16748800  0.47676856  0.54722785     0.16100
O376        O  0.22406574  0.47531984  0.57142132    -0.60900
H377        H  0.23003685  0.49240011  0.55746405     0.43100
H378        H  0.10602719  0.04895884  0.62165433     0.43100
N379        N  0.05522092  0.99466470  0.44104554    -0.06600
N380        N  0.07524921  0.50382674  0.41976632    -0.58700
N381        N  0.02625342  0.92794594  0.46378954    -0.06300
N382        N  0.02908718  0.89665243  0.45816025    -0.60900
N383        N  0.00865508  0.94423429  0.44219818    -0.05900
N384        N  0.49920202  0.92432340  0.42127911    -0.58700
N385        N  0.07258484  0.97888292  0.46308760    -0.05600
N386        N  0.10350926  0.97769737  0.45701673    -0.61200
C387        C  0.10417608  0.99367248  0.42976987     0.95600
C388        C  0.51180234  0.89467584  0.43166055     0.95300
N389        N  0.01001788  0.94391283  0.05899199    -0.06800
N390        N  0.50070223  0.92437488  0.08021945    -0.59300
N391        N  0.07374602  0.97796450  0.03574140    -0.04500
N392        N  0.10485740  0.97616515  0.04131246    -0.60600
N393        N  0.05701368  0.99424303  0.05790430    -0.06800
N394        N  0.07722485  0.50452518  0.07922293    -0.59600
N395        N  0.02692029  0.92753153  0.03699299    -0.04600
N396        N  0.02955509  0.89625943  0.04254281    -0.60700
Mn397      Mn  0.05032371  0.95192579  0.99989980     1.18400
C398        C  0.51285882  0.89463447  0.06955197     0.97600
C399        C  0.10630274  0.99250160  0.06830418     0.98300
N400        N  0.45072087  0.49980544  0.44293416    -0.06900
N401        N  0.43022442  0.99190010  0.42076078    -0.63200
N402        N  0.48095781  0.56648723  0.46438204    -0.05700
N403        N  0.47686396  0.59767650  0.45813505    -0.63800
N404        N  0.49732522  0.55016145  0.44200115    -0.06400
N405        N  0.00451156  0.57016547  0.41997732    -0.63400
N406        N  0.43397816  0.51626317  0.46499729    -0.05300
N407        N  0.40294794  0.51952404  0.45860530    -0.64100
Mn408      Mn  0.00242586  0.99738563  0.44079021     1.10700
C409        C  0.40153423  0.50391180  0.43122138     0.98900
C410        C  0.99178709  0.59975769  0.43043297     0.98900
N411        N  0.49881771  0.54978218  0.05893893    -0.06400
N412        N  0.00792159  0.56953406  0.07988371    -0.61700
N413        N  0.43525650  0.51527634  0.03790196    -0.05700
N414        N  0.40433542  0.51691948  0.04398056    -0.58500
N415        N  0.45243291  0.49913891  0.05984105    -0.07000
N416        N  0.43215230  0.99149152  0.08092344    -0.61300
N417        N  0.48165266  0.56589565  0.03698261    -0.06000
N418        N  0.47887873  0.59721343  0.04226318    -0.58500
Mn419      Mn  0.50517115  0.49666157  0.06024588     1.20200
Mn420      Mn  0.45736966  0.54182323  0.50112837     1.10100
Cl421      Cl  0.00434962  0.49626896  0.00080006    -0.86500
C422        C  0.99558363  0.59907788  0.06900596     0.95900
C423        C  0.40338535  0.50069028  0.07103612     0.95700
C424        C  0.00291129  0.77500867  0.13519837     0.79700
N425        N  0.00302045  0.74673574  0.11952248    -0.78600
C426        C  0.00254622  0.71854357  0.13519184     0.82200
N427        N  0.00203288  0.71895646  0.16673772    -0.78500
C428        C  0.00217766  0.74684084  0.18276092     0.82300
N429        N  0.00251105  0.77480710  0.16678901    -0.80200
C430        C  0.99998154  0.77651126  0.36515638     0.79700
N431        N  0.99865261  0.74850340  0.38082397    -0.78600
C432        C  0.99688984  0.72049643  0.36528744     0.82200
N433        N  0.99673427  0.72078821  0.33366750    -0.78500
C434        C  0.99805284  0.74857495  0.31765365     0.82300
N435        N  0.99977678  0.77622770  0.33361237    -0.80200
C436        C  0.22614873  0.99562922  0.13415867     0.79700
N437        N  0.25452894  0.99596948  0.11911428    -0.78600
C438        C  0.28237166  0.99542231  0.13526645     0.82200
N439        N  0.28169794  0.99437804  0.16680394    -0.78500
C440        C  0.25344233  0.99426832  0.18229782     0.82300
N441        N  0.22579966  0.99496701  0.16572761    -0.80200
C442        C  0.22457305  0.99820660  0.36497820     0.79700
N443        N  0.25244389  0.99946644  0.38067098    -0.78600
C444        C  0.28076256  0.99891325  0.36527647     0.82200
N445        N  0.28103771  0.99703727  0.33377762    -0.78500
C446        C  0.25346380  0.99591715  0.31757261     0.82300
N447        N  0.22531058  0.99653500  0.33340779    -0.80200
C448        C  0.25296508  0.99400265  0.21691656    -0.06000
C449        C  0.28216568  0.99195166  0.23328525    -0.33400
C450        C  0.28285352  0.99218171  0.26578170     0.35900
C451        C  0.25386727  0.99461077  0.28296562    -0.06300
C452        C  0.22527004  0.49926708  0.26665332    -0.33300
C453        C  0.22449371  0.49942601  0.23412037     0.35800
H454        H  0.30485108  0.99022469  0.22092392     0.16100
O455        O  0.31214276  0.99046777  0.28028346    -0.60800
H456        H  0.20260302  0.50150820  0.27909352     0.16100
O457        O  0.19514191  0.50229502  0.21959856    -0.60900
H458        H  0.18817918  0.52585018  0.21758520     0.43100
H459        H  0.31969264  0.96708136  0.28287764     0.43100
C460        C  0.00142349  0.74692733  0.21729478    -0.06000
C461        C  0.49268329  0.77608729  0.23326509    -0.33400
C462        C  0.49091867  0.77697642  0.26572236     0.35900
C463        C  0.99858362  0.74845475  0.28314242    -0.06300
C464        C  0.00752589  0.71925280  0.26727793    -0.33300
C465        C  0.00925951  0.71832899  0.23482622     0.35800
H466        H  0.48635800  0.79841566  0.22052794     0.16100
O467        O  0.48116996  0.80602937  0.27993610    -0.60800
H468        H  0.01387282  0.69694969  0.28005841     0.16100
O469        O  0.01913083  0.68926979  0.22070779    -0.60900
H470        H  0.04283201  0.68796643  0.21870202     0.43100
H471        H  0.45746384  0.80751057  0.28176898     0.43100
C472        C  0.99313924  0.63037024  0.41354416    -0.06000
C473        C  0.98869997  0.65962847  0.42998354    -0.33400
C474        C  0.99010782  0.68904152  0.41485445     0.35900
C475        C  0.99550003  0.68974036  0.38240478    -0.06300
C476        C  0.49882569  0.66021976  0.36588967    -0.33300
C477        C  0.49767844  0.63081596  0.38109929     0.35800
H478        H  0.98444201  0.65975019  0.45484618     0.16100
O479        O  0.98539317  0.71691550  0.43205309    -0.60800
H480        H  0.50253353  0.65988264  0.34095432     0.16100
O481        O  0.50079216  0.60294237  0.36389585    -0.60900
H482        H  0.47847848  0.59976447  0.35850613     0.43100
H483        H  0.00666739  0.71882548  0.44134015     0.43100
C484        C  0.00234189  0.80692487  0.38227790    -0.06000
C485        C  0.01291189  0.80561766  0.41332238    -0.33400
C486        C  0.01603607  0.83387701  0.42980494     0.35900
C487        C  0.00864387  0.86425206  0.41531089    -0.06300
C488        C  0.49693435  0.86553968  0.38460995    -0.33300
C489        C  0.49359188  0.83736088  0.36822608     0.35800
H490        H  0.01905495  0.78258397  0.42490902     0.16100
O491        O  0.02612035  0.83141200  0.46012573    -0.60800
H492        H  0.49069585  0.88858459  0.37306272     0.16100
O493        O  0.48195946  0.84016535  0.33843607    -0.60900
H494        H  0.45831286  0.84105233  0.34052383     0.43100
H495        H  0.00608075  0.83251027  0.47254742     0.43100
C496        C  0.99833329  0.62973279  0.08519756    -0.06000
C497        C  0.00755132  0.62893558  0.11650586    -0.33400
C498        C  0.00911816  0.65743647  0.13301339     0.35900
C499        C  0.00189691  0.68773022  0.11811577    -0.06300
C500        C  0.49320243  0.68876708  0.08650239    -0.33300
C501        C  0.49103357  0.66021941  0.07011009     0.35800
H502        H  0.01313949  0.60607853  0.12853665     0.16100
O503        O  0.01852573  0.65514582  0.16352903    -0.60800
H504        H  0.48736226  0.71160623  0.07450730     0.16100
O505        O  0.48252161  0.66212149  0.03930598    -0.60900
H506        H  0.45866931  0.66661995  0.03922015     0.43100
H507        H  0.99928002  0.65053855  0.17517845     0.43100
C508        C  0.00414933  0.80561721  0.11804261    -0.06000
C509        C  0.01847963  0.80474614  0.08848154    -0.33400
C510        C  0.02135279  0.83325085  0.07230558     0.35900
C511        C  0.00963687  0.86355343  0.08551552    -0.06300
C512        C  0.49496360  0.86468269  0.11519472    -0.33300
C513        C  0.49228866  0.83612665  0.13139480     0.35800
H514        H  0.02814111  0.78185490  0.07802533     0.16100
O515        O  0.03616471  0.83105106  0.04380381    -0.60800
H516        H  0.48578741  0.88756037  0.12593457     0.16100
O517        O  0.47775853  0.83819434  0.16005015    -0.60900
H518        H  0.45489893  0.83604845  0.15598385     0.43100
H519        H  0.01874186  0.82900653  0.02871578     0.43100
C520        C  0.31118666  0.00007114  0.38248646    -0.06000
C521        C  0.34063901  0.98728302  0.36872185    -0.33400
C522        C  0.36982649  0.98795872  0.38427320     0.35900
C523        C  0.37008078  0.00218537  0.41398442    -0.06300
C524        C  0.34163449  0.51331088  0.42860875    -0.33300
C525        C  0.31238545  0.51223496  0.41329585     0.35800
H526        H  0.34111600  0.97635305  0.34585616     0.16100
O527        O  0.39791550  0.97516959  0.36985386    -0.60800
H528        H  0.34110457  0.52316893  0.45193014     0.16100
O529        O  0.28428356  0.52431836  0.42810616    -0.60900
H530        H  0.28004866  0.50721189  0.44288927     0.43100
H531        H  0.40078302  0.95183244  0.37499570     0.43100
C532        C  0.13431962  0.99696685  0.41302408    -0.06000
C533        C  0.16489006  0.48872455  0.42898519    -0.33400
C534        C  0.19420047  0.48942174  0.41377136     0.35900
C535        C  0.19366272  0.99841060  0.38200419    -0.06300
C536        C  0.16435220  0.00367699  0.36561246    -0.33300
C537        C  0.13491021  0.00295435  0.38081291     0.35800
H538        H  0.16526495  0.48199751  0.45332957     0.16100
O539        O  0.22211124  0.48123815  0.43026436    -0.60800
H540        H  0.16414092  0.00812316  0.34079251     0.16100
O541        O  0.10702177  0.00744195  0.36377664    -0.60900
H542        H  0.10412853  0.98564319  0.35621962     0.43100
H543        H  0.22769014  0.45755096  0.42759370     0.43100
C544        C  0.37189948  0.00000822  0.08766357    -0.06000
C545        C  0.34408782  0.51326023  0.07484621    -0.33400
C546        C  0.31483810  0.51284484  0.09007292     0.35900
C547        C  0.31300854  0.99688311  0.11869056    -0.06300
C548        C  0.34213136  0.98158370  0.13123538    -0.33300
C549        C  0.37140483  0.98278208  0.11583051     0.35800
H550        H  0.34401493  0.52620066  0.05302006     0.16100
O551        O  0.28742460  0.52912108  0.07702133    -0.60800
H552        H  0.34218342  0.96832106  0.15288451     0.16100
O553        O  0.39926580  0.96730940  0.12871687    -0.60900
H554        H  0.40133700  0.94486535  0.12073531     0.43100
H555        H  0.28533124  0.55118534  0.08590216     0.43100
C556        C  0.19576776  0.99624532  0.11647817    -0.06000
C557        C  0.16691814  0.51245514  0.12996569    -0.33400
C558        C  0.13775379  0.51214996  0.11423007     0.35900
C559        C  0.13679730  0.99543500  0.08476693    -0.06300
C560        C  0.16621535  0.98346068  0.07051196    -0.33300
C561        C  0.19547650  0.98396730  0.08594405     0.35800
H562        H  0.16643291  0.52261323  0.15316649     0.16100
O563        O  0.10964152  0.52458881  0.12879694    -0.60800
H564        H  0.16663419  0.97315350  0.04737893     0.16100
O565        O  0.22343944  0.97074882  0.07153139    -0.60900
H566        H  0.22928131  0.98796762  0.05766973     0.43100
H567        H  0.10609414  0.54778784  0.12309749     0.43100
N568        N  0.05487468  0.99356735  0.94090497    -0.06600
N569        N  0.07484342  0.50297542  0.91966626    -0.58700
N570        N  0.02547493  0.92723051  0.96401068    -0.06300
N571        N  0.02794280  0.89591250  0.95857684    -0.60900
N572        N  0.00791201  0.94353249  0.94240841    -0.05900
N573        N  0.49851925  0.92355057  0.92180119    -0.58700
N574        N  0.07218287  0.97782969  0.96300581    -0.05600
N575        N  0.10312156  0.97649938  0.95693952    -0.61200
C576        C  0.10384128  0.99232959  0.92961830     0.95600
C577        C  0.51121108  0.89395914  0.93223189     0.95300
N578        N  0.01056658  0.94405219  0.55884282    -0.06800
N579        N  0.50163674  0.92421472  0.57976037    -0.59300
N580        N  0.07401207  0.97869739  0.53584596    -0.04500
N581        N  0.10510349  0.97775816  0.54106957    -0.60600
N582        N  0.05716459  0.99473722  0.55807058    -0.06800
N583        N  0.07707092  0.50557306  0.57903878    -0.59600
N584        N  0.02754590  0.92780883  0.53680449    -0.04600
N585        N  0.03059491  0.89651842  0.54245331    -0.60700
Mn586      Mn  0.05085503  0.95260900  0.49984656     1.18400
C587        C  0.51399512  0.89454357  0.56915174     0.97600
C588        C  0.10640768  0.99438712  0.56791612     0.98300
N589        N  0.45027708  0.49891049  0.94321490    -0.06900
N590        N  0.42964179  0.99075417  0.92106519    -0.63200
N591        N  0.48040946  0.56582918  0.96415137    -0.05700
N592        N  0.47639220  0.59700912  0.95787135    -0.63800
N593        N  0.49678859  0.54944958  0.94181587    -0.06400
N594        N  0.00348550  0.56922513  0.91966157    -0.63400
N595        N  0.43354482  0.51540144  0.96525447    -0.05300
N596        N  0.40247318  0.51821500  0.95909820    -0.64100
Mn597      Mn  0.00207281  0.99663234  0.94066045     1.10700
C598        C  0.40104237  0.50227201  0.93188305     0.98900
C599        C  0.99054330  0.59877247  0.93009015     0.98900
N600        N  0.49899559  0.55006957  0.55909471    -0.06400
N601        N  0.00838938  0.57016427  0.57973947    -0.61700
N602        N  0.43533540  0.51568786  0.53771325    -0.05700
N603        N  0.40439146  0.51739767  0.54376120    -0.58500
N604        N  0.45243990  0.49946978  0.55965374    -0.07000
N605        N  0.43257086  0.99110549  0.58084527    -0.61300
N606        N  0.48185139  0.56624211  0.53717087    -0.06000
N607        N  0.47937318  0.59755163  0.54234088    -0.58500
Mn608      Mn  0.50520054  0.49693502  0.56022688     1.20200
Mn609      Mn  0.45705240  0.54126818  0.00113057     1.10100
Cl610      Cl  0.00445694  0.49710074  0.50067236    -0.86500
C611        C  0.99609534  0.59976993  0.56895082     0.95900
C612        C  0.40335134  0.50112324  0.57079456     0.95700
C613        C  0.00501875  0.77519070  0.63565231     0.79700
N614        N  0.00482714  0.74707123  0.61981022    -0.78600
C615        C  0.00435075  0.71879721  0.63529895     0.82200
N616        N  0.00392978  0.71891730  0.66685636    -0.78500
C617        C  0.00423227  0.74669091  0.68305130     0.82300
N618        N  0.00472799  0.77473140  0.66723785    -0.80200
C619        C  0.99825990  0.77591670  0.86562617     0.79700
N620        N  0.99666213  0.74785054  0.88110710    -0.78600
C621        C  0.99532856  0.71986406  0.86536991     0.82200
N622        N  0.99596616  0.72024188  0.83374943    -0.78500
C623        C  0.99762090  0.74808643  0.81792390     0.82300
N624        N  0.99882995  0.77571323  0.83409029    -0.80200
C625        C  0.22598610  0.99867217  0.63380971     0.79700
N626        N  0.25452504  0.99838972  0.61890964    -0.78600
C627        C  0.28233946  0.99744340  0.63517393     0.82200
N628        N  0.28148001  0.99655687  0.66671258    -0.78500
C629        C  0.25306610  0.99704511  0.68208805     0.82300
N630        N  0.22543645  0.99817802  0.66539036    -0.80200
C631        C  0.22410420  0.99745949  0.86483015     0.79700
N632        N  0.25201109  0.99808643  0.88060954    -0.78600
C633        C  0.28032489  0.99781793  0.86531108     0.82200
N634        N  0.28059235  0.99686203  0.83376240    -0.78500
C635        C  0.25295250  0.99639035  0.81744718     0.82300
N636        N  0.22478580  0.99673111  0.83322019    -0.80200
C637        C  0.25248359  0.99658173  0.71671920    -0.06000
C638        C  0.28172073  0.99269336  0.73315753    -0.33400
C639        C  0.28236603  0.99230724  0.76566335     0.35900
C640        C  0.25331068  0.99598763  0.78280137    -0.06300
C641        C  0.22491528  0.50036524  0.76664617    -0.33300
C642        C  0.22413437  0.50095783  0.73409973     0.35800
H643        H  0.30447741  0.98984218  0.72084005     0.16100
O644        O  0.31171585  0.98855668  0.78023629    -0.60800
H645        H  0.20223111  0.50317553  0.77908736     0.16100
O646        O  0.19475462  0.50490115  0.71957756    -0.60900
H647        H  0.18853839  0.52857976  0.71773315     0.43100
H648        H  0.31784398  0.96491246  0.78253470     0.43100
C649        C  0.00320112  0.74668077  0.71759189    -0.06000
C650        C  0.49277487  0.77599460  0.73335438    -0.33400
C651        C  0.49090699  0.77673676  0.76581973     0.35900
C652        C  0.99908763  0.74807185  0.78341210    -0.06300
C653        C  0.00772884  0.71881405  0.76752715    -0.33300
C654        C  0.01011087  0.71795731  0.73509480     0.35800
H655        H  0.48632282  0.79834264  0.72067882     0.16100
O656        O  0.48098359  0.80570216  0.78013086    -0.60800
H657        H  0.01326659  0.69638918  0.78028031     0.16100
O658        O  0.01959871  0.68882380  0.72096261    -0.60900
H659        H  0.04339131  0.68689201  0.71956903     0.43100
H660        H  0.45730900  0.80695334  0.78210851     0.43100
C661        C  0.99156395  0.62945739  0.91321058    -0.06000
C662        C  0.98697103  0.65866132  0.92973760    -0.33400
C663        C  0.98818212  0.68816216  0.91471393     0.35900
C664        C  0.99370725  0.68901302  0.88229230    -0.06300
C665        C  0.49932865  0.65952807  0.86581195    -0.33300
C666        C  0.49804567  0.63010429  0.88097099     0.35800
H667        H  0.98273230  0.65868241  0.95460180     0.16100
O668        O  0.98313525  0.71597189  0.93199140    -0.60800
H669        H  0.50353276  0.65918798  0.84095028     0.16100
O670        O  0.50160547  0.60220598  0.86379168    -0.60900
H671        H  0.47945629  0.59914322  0.85766952     0.43100
H672        H  0.00428049  0.71797861  0.94151249     0.43100
C673        C  0.00036689  0.80627563  0.88291474    -0.06000
C674        C  0.01146761  0.80488186  0.91377879    -0.33400
C675        C  0.01478207  0.83311215  0.93024983     0.35900
C676        C  0.00695324  0.86353924  0.91594625    -0.06300
C677        C  0.49663820  0.86489273  0.88506593    -0.33300
C678        C  0.49349713  0.83675306  0.86854421     0.35800
H679        H  0.01802209  0.78179711  0.92516695     0.16100
O680        O  0.02563591  0.83055911  0.96031947    -0.60800
H681        H  0.49020408  0.88797051  0.87362761     0.16100
O682        O  0.48193098  0.83963370  0.83873280    -0.60900
H683        H  0.45821703  0.84128008  0.84081040     0.43100
H684        H  0.00596003  0.83097273  0.97318262     0.43100
C685        C  0.99924478  0.63043406  0.58504509    -0.06000
C686        C  0.01201746  0.62947226  0.61518844    -0.33400
C687        C  0.01400019  0.65789875  0.63172221     0.35900
C688        C  0.00353880  0.68822839  0.61800182    -0.06300
C689        C  0.49208499  0.68918660  0.58692615    -0.33300
C690        C  0.48993148  0.66063036  0.57055940     0.35800
H691        H  0.02018851  0.60654140  0.62629943     0.16100
O692        O  0.02715613  0.65564475  0.66094187    -0.60800
H693        H  0.48455235  0.71207338  0.57548872     0.16100
O694        O  0.47919641  0.66263976  0.54040826    -0.60900
H695        H  0.45536740  0.66611809  0.54193097     0.43100
H696        H  0.01055549  0.64805814  0.67441481     0.43100
C697        C  0.00635492  0.80588919  0.61862534    -0.06000
C698        C  0.01866592  0.80496408  0.58819573    -0.33400
C699        C  0.02124598  0.83343516  0.57184760     0.35900
C700        C  0.01134069  0.86375888  0.58577990    -0.06300
C701        C  0.49765691  0.86491366  0.61560855    -0.33300
C702        C  0.49490481  0.83648528  0.63196703     0.35800
H703        H  0.02682738  0.78203681  0.57706116     0.16100
O704        O  0.03372895  0.83118437  0.54232909    -0.60800
H705        H  0.48961144  0.88788345  0.62670710     0.16100
O706        O  0.48179176  0.83884421  0.66124740    -0.60900
H707        H  0.45851601  0.83793066  0.65819573     0.43100
H708        H  0.01520869  0.82877652  0.52867735     0.43100
C709        C  0.31067985  0.99849845  0.88274126    -0.06000
C710        C  0.34010514  0.98525573  0.86924311    -0.33400
C711        C  0.36924144  0.98580566  0.88493721     0.35900
C712        C  0.36946569  0.00042319  0.91448672    -0.06300
C713        C  0.34113842  0.51216346  0.92894870    -0.33300
C714        C  0.31194034  0.51132455  0.91345684     0.35800
H715        H  0.34058305  0.97414714  0.84645623     0.16100
O716        O  0.39732223  0.97257016  0.87077688    -0.60800
H717        H  0.34057769  0.52253833  0.95205981     0.16100
O718        O  0.28386056  0.52429501  0.92781525    -0.60900
H719        H  0.27906732  0.50765209  0.94286810     0.43100
H720        H  0.40011138  0.94937651  0.87648538     0.43100
C721        C  0.13398107  0.99557295  0.91287891    -0.06000
C722        C  0.16445923  0.48828067  0.92897075    -0.33400
C723        C  0.19376958  0.48894069  0.91376766     0.35900
C724        C  0.19323880  0.99735856  0.88184783    -0.06300
C725        C  0.16390436  0.00281181  0.86552611    -0.33300
C726        C  0.13450439  0.00191601  0.88073192     0.35800
H727        H  0.16482486  0.48167674  0.95334734     0.16100
O728        O  0.22165937  0.48077911  0.93030003    -0.60800
H729        H  0.16363556  0.00756761  0.84076023     0.16100
O730        O  0.10657700  0.00666315  0.86376660    -0.60900
H731        H  0.10367419  0.98498392  0.85589152     0.43100
H732        H  0.22704531  0.45703673  0.92794784     0.43100
C733        C  0.37226491  0.00022492  0.58764484    -0.06000
C734        C  0.34399809  0.51345882  0.57435954    -0.33400
C735        C  0.31471313  0.51331583  0.58961896     0.35900
C736        C  0.31314466  0.99827005  0.61866971    -0.06300
C737        C  0.34211106  0.98283798  0.63145295    -0.33300
C738        C  0.37150303  0.98344863  0.61603946     0.35800
H739        H  0.34394566  0.52591623  0.55227083     0.16100
O740        O  0.28731708  0.52919883  0.57619684    -0.60800
H741        H  0.34194491  0.96993451  0.65328834     0.16100
O742        O  0.39921027  0.96788915  0.62914019    -0.60900
H743        H  0.40088682  0.94526509  0.62171698     0.43100
H744        H  0.28527630  0.55154853  0.58437782     0.43100
C745        C  0.19571886  0.99941932  0.61591418    -0.06000
C746        C  0.16665695  0.51466459  0.62948383    -0.33400
C747        C  0.13753423  0.51428775  0.61367254     0.35900
C748        C  0.13687513  0.99805664  0.58412655    -0.06300
C749        C  0.16631596  0.98539964  0.57029344    -0.33300
C750        C  0.19551574  0.98619228  0.58574863     0.35800
H751        H  0.16614580  0.52519145  0.65253089     0.16100
O752        O  0.10940768  0.52721639  0.62793518    -0.60800
H753        H  0.16679278  0.97421519  0.54754454     0.16100
O754        O  0.22348033  0.97224690  0.57180779    -0.60900
H755        H  0.22968121  0.98897966  0.55756698     0.43100
H756        H  0.10595706  0.55025025  0.62164117     0.43100
N757        N  0.55640949  0.49416684  0.44159316    -0.06600
N758        N  0.57413214  0.00432062  0.41919083    -0.58700
N759        N  0.52728146  0.42743650  0.46422604    -0.06300
N760        N  0.52998096  0.39614617  0.45858232    -0.60900
N761        N  0.50970891  0.44377459  0.44264512    -0.05900
N762        N  0.99979193  0.42420810  0.42198050    -0.58700
N763        N  0.57375223  0.47823597  0.46356139    -0.05600
N764        N  0.60467589  0.47663470  0.45728854    -0.61200
C765        C  0.60539374  0.49256836  0.43001981     0.95600
C766        C  0.01226175  0.39451515  0.43232455     0.95300
N767        N  0.51144873  0.44355158  0.05941228    -0.06800
N768        N  0.00193828  0.42334765  0.07999017    -0.59300
N769        N  0.57479723  0.47805520  0.03623677    -0.04500
N770        N  0.60587769  0.47746885  0.04133209    -0.60600
N771        N  0.55790663  0.49424591  0.05836472    -0.06800
N772        N  0.57633100  0.00422817  0.07904774    -0.59600
N773        N  0.52841559  0.42716817  0.03746574    -0.04600
N774        N  0.53050088  0.39587748  0.04271823    -0.60700
Mn775      Mn  0.55165609  0.45163527  0.00035813     1.18400
C776        C  0.01398723  0.39369303  0.06919062     0.97600
C777        C  0.60710001  0.49444467  0.06799507     0.98300
N778        N  0.94958603  0.00026209  0.44260691    -0.06900
N779        N  0.93124332  0.49195702  0.42091348    -0.63200
N780        N  0.97988952  0.06706786  0.46355925    -0.05700
N781        N  0.97619893  0.09826430  0.45730617    -0.63800
N782        N  0.99629573  0.05060440  0.44130124    -0.06400
N783        N  0.50403549  0.07024448  0.41927044    -0.63400
N784        N  0.93288356  0.01692920  0.46457007    -0.05300
N785        N  0.90185431  0.02028718  0.45816613    -0.64100
Mn786      Mn  0.50356428  0.49692958  0.44129547     1.10700
C787        C  0.90040286  0.00446576  0.43090201     0.98900
C788        C  0.49151317  0.09994247  0.42961127     0.98900
N789        N  0.99846007  0.05038643  0.05785978    -0.06400
N790        N  0.50730539  0.07091276  0.07846980    -0.61700
N791        N  0.93416495  0.01674321  0.03729979    -0.05700
N792        N  0.90323582  0.01886583  0.04370089    -0.58500
N793        N  0.95134838  0.00039751  0.05913473    -0.07000
N794        N  0.93337720  0.48928895  0.08141241    -0.61300
N795        N  0.98122782  0.06655062  0.03596191    -0.06000
N796        N  0.97863659  0.09784217  0.04119355    -0.58500
Mn797      Mn  0.00418527  0.99722975  0.05957154     1.20200
Mn798      Mn  0.95644385  0.04248348  0.50054682     1.10100
Cl799      Cl  0.50300301  0.99717662  0.00013561    -0.86500
C800        C  0.49478893  0.10042836  0.06764707     0.95900
C801        C  0.90232047  0.00267232  0.07080699     0.95700
C802        C  0.50090437  0.27563375  0.13484696     0.79700
N803        N  0.50103073  0.24751254  0.11904925    -0.78600
C804        C  0.50051266  0.21931420  0.13454715     0.82200
N805        N  0.49976945  0.21943276  0.16609779    -0.78500
C806        C  0.49961386  0.24732011  0.18223004     0.82300
N807        N  0.50032288  0.27531531  0.16641252    -0.80200
C808        C  0.50313254  0.27606065  0.36468562     0.79700
N809        N  0.50130507  0.24812712  0.38028644    -0.78600
C810        C  0.49955262  0.22018060  0.36467778     0.82200
N811        N  0.49989065  0.22041993  0.33307033    -0.78500
C812        C  0.50192119  0.24808250  0.31710389     0.82300
N813        N  0.50348106  0.27574469  0.33313453    -0.80200
C814        C  0.72652132  0.49899450  0.13393406     0.79700
N815        N  0.75510444  0.49812291  0.11902916    -0.78600
C816        C  0.78298116  0.49663908  0.13522556     0.82200
N817        N  0.78216157  0.49582400  0.16674329    -0.78500
C818        C  0.75372409  0.49688032  0.18216688     0.82300
N819        N  0.72599540  0.49854465  0.16552403    -0.80200
C820        C  0.72551549  0.49802830  0.36489454     0.79700
N821        N  0.75339024  0.49920365  0.38061969    -0.78600
C822        C  0.78162077  0.49936409  0.36522073     0.82200
N823        N  0.78176653  0.49828782  0.33367419    -0.78500
C824        C  0.75416756  0.49725755  0.31745619     0.82300
N825        N  0.72611968  0.49717771  0.33330593    -0.80200
C826        C  0.75328679  0.49656048  0.21678406    -0.06000
C827        C  0.78254195  0.49443082  0.23309175    -0.33400
C828        C  0.78334564  0.49438784  0.26557958     0.35900
C829        C  0.75442912  0.49657897  0.28283232    -0.06300
C830        C  0.72478639  0.99589298  0.26642529    -0.33300
C831        C  0.72410748  0.99566707  0.23389297     0.35800
H832        H  0.80519731  0.49283497  0.22069463     0.16100
O833        O  0.81268188  0.49258439  0.28000730    -0.60800
H834        H  0.70211920  0.99762296  0.27881861     0.16100
O835        O  0.69483808  0.99753768  0.21932691    -0.60900
H836        H  0.68705275  0.02095216  0.21740861     0.43100
H837        H  0.82028696  0.46918195  0.28237392     0.43100
C838        C  0.49980817  0.24721324  0.21671403    -0.06000
C839        C  0.99566580  0.27637381  0.23266208    -0.33400
C840        C  0.99490037  0.27757960  0.26514738     0.35900
C841        C  0.50161009  0.24812476  0.28256968    -0.06300
C842        C  0.49068710  0.22244947  0.26659847    -0.33300
C843        C  0.48974072  0.22179943  0.23406945     0.35800
H844        H  0.99256609  0.29896416  0.21997595     0.16100
O845        O  0.99032086  0.30723151  0.27928189    -0.60800
H846        H  0.48241746  0.20282460  0.27932010     0.16100
O847        O  0.47771542  0.19682264  0.21961757    -0.60900
H848        H  0.49471702  0.17792590  0.22177097     0.43100
H849        H  0.96665678  0.31344578  0.28016904     0.43100
C850        C  0.49350319  0.13048922  0.41275520    -0.06000
C851        C  0.48723241  0.15997403  0.42872383    -0.33400
C852        C  0.48925390  0.18928562  0.41362276     0.35900
C853        C  0.49733155  0.18960886  0.38171438    -0.06300
C854        C  0.00294535  0.16034297  0.36592648    -0.33300
C855        C  0.00135222  0.13097878  0.38105918     0.35800
H856        H  0.48093785  0.16038156  0.45317945     0.16100
O857        O  0.48227713  0.21743402  0.43017028    -0.60800
H858        H  0.00919999  0.15985002  0.34146533     0.16100
O859        O  0.00734174  0.10287901  0.36430530    -0.60900
H860        H  0.98605318  0.09901983  0.35630769     0.43100
H861        H  0.50241902  0.22000335  0.44135463     0.43100
C862        C  0.50485190  0.30650331  0.38195967    -0.06000
C863        C  0.51484229  0.30518805  0.41318153    -0.33400
C864        C  0.51722765  0.33344221  0.42993653     0.35900
C865        C  0.50966640  0.36384919  0.41554744    -0.06300
C866        C  0.99676037  0.36568163  0.38531060    -0.33300
C867        C  0.99378017  0.33759339  0.36861945     0.35800
H868        H  0.52114258  0.28213498  0.42469551     0.16100
O869        O  0.52690946  0.33092817  0.46038348    -0.60800
H870        H  0.98985153  0.38881843  0.37412172     0.16100
O871        O  0.98161960  0.34055987  0.33902917    -0.60900
H872        H  0.95814555  0.34031228  0.34139781     0.43100
H873        H  0.50673288  0.33185695  0.47258457     0.43100
C874        C  0.49732840  0.13112950  0.08388659    -0.06000
C875        C  0.51150177  0.13032165  0.11346678    -0.33400
C876        C  0.51287766  0.15877232  0.13017031     0.35900
C877        C  0.50031648  0.18885352  0.11716452    -0.06300
C878        C  0.98742470  0.18929205  0.08753440    -0.33300
C879        C  0.98527447  0.16084764  0.07109240     0.35800
H880        H  0.52130362  0.10750840  0.12396255     0.16100
O881        O  0.52759169  0.15693529  0.15871560    -0.60800
H882        H  0.97678100  0.21210674  0.07757238     0.16100
O883        O  0.97034033  0.16291744  0.04265702    -0.60900
H884        H  0.94701668  0.16439729  0.04730575     0.43100
H885        H  0.51220104  0.14850215  0.17301230     0.43100
C886        C  0.50277064  0.30604110  0.11777874    -0.06000
C887        C  0.51738223  0.30480697  0.08833222    -0.33400
C888        C  0.52081372  0.33310474  0.07212648     0.35900
C889        C  0.50945165  0.36348617  0.08526404    -0.06300
C890        C  0.99538696  0.36426465  0.11458927    -0.33300
C891        C  0.99224147  0.33591941  0.13083160     0.35800
H892        H  0.52681904  0.28179297  0.07798624     0.16100
O893        O  0.53583630  0.33064468  0.04372350    -0.60800
H894        H  0.98646280  0.38724475  0.12526439     0.16100
O895        O  0.97766509  0.33826619  0.15946458    -0.60900
H896        H  0.95468984  0.33668787  0.15535111     0.43100
H897        H  0.51881087  0.32708526  0.02868202     0.43100
C898        C  0.81209973  0.50036964  0.38247947    -0.06000
C899        C  0.84165023  0.48892942  0.36814725    -0.33400
C900        C  0.87086481  0.48948861  0.38371860     0.35900
C901        C  0.87105753  0.50225216  0.41405704    -0.06300
C902        C  0.84058179  0.01523117  0.42765764    -0.33300
C903        C  0.81136814  0.01410536  0.41230773     0.35800
H904        H  0.84220325  0.47915692  0.34479310     0.16100
O905        O  0.89903433  0.47811724  0.36869736    -0.60800
H906        H  0.84006446  0.02619848  0.45050753     0.16100
O907        O  0.78331729  0.02758750  0.42639844    -0.60900
H908        H  0.77873238  0.01164620  0.44226885     0.43100
H909        H  0.90243601  0.45451938  0.37260171     0.43100
C910        C  0.63557051  0.49564229  0.41315370    -0.06000
C911        C  0.66345429  0.99257240  0.42930042    -0.33400
C912        C  0.69283489  0.99324874  0.41419940     0.35900
C913        C  0.69473663  0.49753100  0.38191881    -0.06300
C914        C  0.66524757  0.50497099  0.36612425    -0.33300
C915        C  0.63588176  0.50405522  0.38143214     0.35800
H916        H  0.66356418  0.98802534  0.45411342     0.16100
O917        O  0.72051851  0.98800552  0.43148722    -0.60800
H918        H  0.66484363  0.51145691  0.34172411     0.16100
O919        O  0.60776714  0.51103372  0.36499638    -0.60900
H920        H  0.60380603  0.49017203  0.35590129     0.43100
H921        H  0.72686465  0.96424223  0.43151912     0.43100
C922        C  0.87301088  0.49784015  0.08764815    -0.06000
C923        C  0.84291882  0.01518895  0.07529411    -0.33400
C924        C  0.81374910  0.01380544  0.09047382     0.35900
C925        C  0.81381018  0.49679043  0.11865313    -0.06300
C926        C  0.84265980  0.48135740  0.13167496    -0.33300
C927        C  0.87210843  0.48154268  0.11627487     0.35800
H928        H  0.84263230  0.02886462  0.05388025     0.16100
O929        O  0.78607925  0.03012279  0.07794706    -0.60800
H930        H  0.84236977  0.46888012  0.15373301     0.16100
O931        O  0.89973622  0.46615280  0.12965765    -0.60900
H932        H  0.90165377  0.44352492  0.12220134     0.43100
H933        H  0.78356139  0.05179845  0.08771142     0.43100
C934        C  0.69626215  0.50003121  0.11596526    -0.06000
C935        C  0.66644751  0.00904701  0.13042049    -0.33400
C936        C  0.63716446  0.00916442  0.11480180     0.35900
C937        C  0.63749337  0.49853655  0.08411413    -0.06300
C938        C  0.66698779  0.48657296  0.07004154    -0.33300
C939        C  0.69614783  0.48745170  0.08551291     0.35800
H940        H  0.66614452  0.01887771  0.15374550     0.16100
O941        O  0.60917833  0.02138331  0.12970342    -0.60800
H942        H  0.66754217  0.47580898  0.04709868     0.16100
O943        O  0.72418009  0.47416026  0.07126597    -0.60900
H944        H  0.73014893  0.49135490  0.05744740     0.43100
H945        H  0.60582704  0.04475742  0.12470152     0.43100
N946        N  0.55592999  0.49345401  0.94140648    -0.06600
N947        N  0.57368381  0.00288389  0.91918046    -0.58700
N948        N  0.52685096  0.42680824  0.96443888    -0.06300
N949        N  0.52931529  0.39550679  0.95885469    -0.60900
N950        N  0.50917993  0.44318565  0.94295608    -0.05900
N951        N  0.99953826  0.42337976  0.92221640    -0.58700
N952        N  0.57333053  0.47762924  0.96339687    -0.05600
N953        N  0.60423688  0.47620430  0.95715091    -0.61200
C954        C  0.60489450  0.49209474  0.92985336     0.95600
C955        C  0.01200108  0.39368381  0.93249401     0.95300
N956        N  0.51137823  0.44379882  0.55913897    -0.06800
N957        N  0.00131527  0.42390216  0.57942780    -0.59300
N958        N  0.57490309  0.47842161  0.53642755    -0.04500
N959        N  0.60595931  0.47801457  0.54151976    -0.60600
N960        N  0.55794041  0.49451525  0.55856219    -0.06800
N961        N  0.57659001  0.00486312  0.57881612    -0.59600
N962        N  0.52850157  0.42752015  0.53722938    -0.04600
N963        N  0.53049543  0.39620105  0.54228793    -0.60700
Mn964      Mn  0.55190675  0.45214485  0.50033896     1.18400
C965        C  0.01331594  0.39424724  0.56856012     0.97600
C966        C  0.60709527  0.49501698  0.56817981     0.98300
N967        N  0.94924487  0.99971864  0.94248412    -0.06900
N968        N  0.93097172  0.49007229  0.92159883    -0.63200
N969        N  0.97985451  0.06651149  0.96299551    -0.05700
N970        N  0.97638928  0.09767732  0.95663519    -0.63800
N971        N  0.99624627  0.04988628  0.94082334    -0.06400
N972        N  0.50411605  0.06939786  0.91877244    -0.63400
N973        N  0.93255421  0.01647989  0.96438612    -0.05300
N974        N  0.90146930  0.01919690  0.95831428    -0.64100
Mn975      Mn  0.50308139  0.49622111  0.94135438     1.10700
C976        C  0.90000210  0.00287446  0.93131214     0.98900
C977        C  0.49183108  0.09923028  0.92900680     0.98900
N978        N  0.99837526  0.05040607  0.55833040    -0.06400
N979        N  0.50829836  0.07048497  0.57866223    -0.61700
N980        N  0.93439624  0.01662465  0.53740981    -0.05700
N981        N  0.90348391  0.01901808  0.54392843    -0.58500
N982        N  0.95154798  0.00016586  0.55919888    -0.07000
N983        N  0.93331982  0.48985339  0.58099837    -0.61300
N984        N  0.98128495  0.06663790  0.53639519    -0.06000
N985        N  0.97907663  0.09792986  0.54144660    -0.58500
Mn986      Mn  0.00438246  0.99730733  0.55970756     1.20200
Mn987      Mn  0.95626092  0.04225671  0.00020566     1.10100
Cl988      Cl  0.50358340  0.99739986  0.50008214    -0.86500
C989        C  0.49625503  0.10007753  0.56770020     0.95900
C990        C  0.90251185  0.00289323  0.57105858     0.95700
C991        C  0.50106605  0.27574772  0.63424445     0.79700
N992        N  0.50183801  0.24745011  0.61860845    -0.78600
C993        C  0.50158487  0.21928310  0.63423098     0.82200
N994        N  0.50063974  0.21967762  0.66576878    -0.78500
C995        C  0.50012841  0.24767632  0.68180690     0.82300
N996        N  0.50023515  0.27569033  0.66583059    -0.80200
C997        C  0.50005529  0.27635701  0.86455599     0.79700
N998        N  0.49934593  0.24809822  0.87996306    -0.78600
C999        C  0.49773838  0.22020193  0.86421785     0.82200
N1000       N  0.49713871  0.22082153  0.83261687    -0.78500
C1001       C  0.49780674  0.24888080  0.81681667     0.82300
N1002       N  0.49934878  0.27645913  0.83299900    -0.80200
C1003       C  0.72652911  0.49987799  0.63408930     0.79700
N1004       N  0.75509591  0.49894468  0.61914864    -0.78600
C1005       C  0.78302294  0.49739467  0.63527506     0.82200
N1006       N  0.78226686  0.49654157  0.66681831    -0.78500
C1007       C  0.75383430  0.49765086  0.68230016     0.82300
N1008       N  0.72606431  0.49939333  0.66568445    -0.80200
C1009       C  0.72523525  0.49745117  0.86505784     0.79700
N1010       N  0.75313073  0.49794350  0.88091433    -0.78600
C1011       C  0.78149464  0.49770273  0.86568431     0.82200
N1012       N  0.78178760  0.49692381  0.83411264    -0.78500
C1013       C  0.75414646  0.49661571  0.81773474     0.82300
N1014       N  0.72595172  0.49692294  0.83345830    -0.80200
C1015       C  0.75341637  0.49711436  0.71695785    -0.06000
C1016       C  0.78270907  0.49372761  0.73332448    -0.33400
C1017       C  0.78347139  0.49328978  0.76584682     0.35900
C1018       C  0.75448334  0.49635601  0.78306994    -0.06300
C1019       C  0.72400287  0.99941759  0.76665904    -0.33300
C1020       C  0.72334514  0.99996991  0.73410648     0.35800
H1021       H  0.80541397  0.49137343  0.72094123     0.16100
O1022       O  0.81284652  0.49017084  0.78034543    -0.60800
H1023       H  0.70128152  0.00217150  0.77903636     0.16100
O1024       O  0.69402229  0.00388035  0.71947429    -0.60900
H1025       H  0.68784996  0.02755253  0.71750061     0.43100
H1026       H  0.81949038  0.46659338  0.78261124     0.43100
C1027       C  0.49953364  0.24772704  0.71636028    -0.06000
C1028       C  0.99112387  0.27697304  0.73233107    -0.33400
C1029       C  0.99009510  0.27779851  0.76485244     0.35900
C1030       C  0.49779636  0.24906457  0.78227659    -0.06300
C1031       C  0.50630372  0.21991231  0.76622300    -0.33300
C1032       C  0.50753456  0.21908241  0.73377155     0.35800
H1033       H  0.98493241  0.29938413  0.71969092     0.16100
O1034       O  0.98129827  0.30692216  0.77926271    -0.60800
H1035       H  0.51275893  0.19753076  0.77884771     0.16100
O1036       O  0.51716721  0.19004357  0.71953147    -0.60900
H1037       H  0.54089056  0.18853836  0.71757565     0.43100
H1038       H  0.95757843  0.30903252  0.78140705     0.43100
C1039       C  0.49408563  0.12982448  0.91217616    -0.06000
C1040       C  0.48683812  0.15929642  0.92802321    -0.33400
C1041       C  0.48828151  0.18874614  0.91297968     0.35900
C1042       C  0.49671429  0.18931280  0.88118402    -0.06300
C1043       C  0.00335812  0.15974004  0.86522697    -0.33300
C1044       C  0.00215412  0.13028331  0.88042453     0.35800
H1045       H  0.48001973  0.15961953  0.95234228     0.16100
O1046       O  0.48018650  0.21680616  0.92943070    -0.60800
H1047       H  0.00992504  0.15931625  0.84084333     0.16100
O1048       O  0.00899056  0.10214910  0.86384277    -0.60900
H1049       H  0.98803002  0.09793421  0.85531489     0.43100
H1050       H  0.49995632  0.22001581  0.94094594     0.43100
C1051       C  0.50225319  0.30658906  0.88205278    -0.06000
C1052       C  0.51304306  0.30487837  0.91304339    -0.33400
C1053       C  0.51606964  0.33291308  0.92992495     0.35900
C1054       C  0.50832451  0.36346996  0.91591185    -0.06300
C1055       C  0.99769930  0.36519111  0.88489638    -0.33300
C1056       C  0.99455034  0.33726266  0.86803700     0.35800
H1057       H  0.51949271  0.28169217  0.92426847     0.16100
O1058       O  0.52652743  0.33004436  0.96011433    -0.60800
H1059       H  0.99193652  0.38837616  0.87349478     0.16100
O1060       O  0.98382325  0.34049953  0.83795640    -0.60900
H1061       H  0.96004698  0.34233874  0.83940782     0.43100
H1062       H  0.50665882  0.33075462  0.97274209     0.43100
C1063       C  0.49927486  0.13069395  0.58376925    -0.06000
C1064       C  0.51021744  0.12984346  0.61456823    -0.33400
C1065       C  0.51131665  0.15833944  0.63122431     0.35900
C1066       C  0.50178942  0.18857950  0.61697347    -0.06300
C1067       C  0.99229925  0.18929834  0.58557982    -0.33300
C1068       C  0.99076790  0.16072711  0.56911420     0.35800
H1069       H  0.51744162  0.10695897  0.62612167     0.16100
O1070       O  0.52255045  0.15620635  0.66117017    -0.60800
H1071       H  0.98552520  0.21212075  0.57378310     0.16100
O1072       O  0.98172027  0.16259278  0.53844624    -0.60900
H1073       H  0.95785457  0.16675202  0.53872928     0.43100
H1074       H  0.50478739  0.14945360  0.67368013     0.43100
C1075       C  0.50259450  0.30606578  0.61696267    -0.06000
C1076       C  0.51899153  0.30494643  0.58842680    -0.33400
C1077       C  0.52235999  0.33327408  0.57222749     0.35900
C1078       C  0.50911563  0.36355966  0.58447060    -0.06300
C1079       C  0.99173890  0.36457728  0.61234770    -0.33300
C1080       C  0.98840203  0.33621455  0.62852042     0.35800
H1081       H  0.52996870  0.28203042  0.57890400     0.16100
O1082       O  0.53942125  0.33098176  0.54490874    -0.60800
H1083       H  0.98087577  0.38745822  0.62200968     0.16100
O1084       O  0.97115740  0.33831375  0.65573662    -0.60900
H1085       H  0.94886794  0.33583390  0.64958700     0.43100
H1086       H  0.52402967  0.32568454  0.52888040     0.43100
C1087       C  0.81189618  0.49813989  0.88320668    -0.06000
C1088       C  0.84139901  0.48579092  0.86929273    -0.33400
C1089       C  0.87056305  0.48616585  0.88500540     0.35900
C1090       C  0.87075425  0.49966015  0.91505336    -0.06300
C1091       C  0.84013902  0.01328848  0.92814931    -0.33300
C1092       C  0.81093640  0.01203132  0.91281691     0.35800
H1093       H  0.84193877  0.47555122  0.84612640     0.16100
O1094       O  0.89870357  0.47395608  0.87035757    -0.60800
H1095       H  0.83962762  0.02474086  0.95077327     0.16100
O1096       O  0.78290150  0.02596044  0.92664138    -0.60900
H1097       H  0.77800914  0.01025416  0.94261358     0.43100
H1098       H  0.90180285  0.45050858  0.87502356     0.43100
C1099       C  0.63508192  0.49532478  0.91306344    -0.06000
C1100       C  0.66301388  0.99025516  0.92943871    -0.33400
C1101       C  0.69240957  0.99092727  0.91438493     0.35900
C1102       C  0.69435981  0.49719488  0.88200221    -0.06300
C1103       C  0.66491664  0.50477069  0.86615111    -0.33300
C1104       C  0.63549201  0.50381059  0.88136404     0.35800
H1105       H  0.66311911  0.98534268  0.95418658     0.16100
O1106       O  0.72009314  0.98523820  0.93163986    -0.60800
H1107       H  0.66459896  0.51128975  0.84176162     0.16100
O1108       O  0.60742717  0.51072404  0.86484152    -0.60900
H1109       H  0.60374409  0.48991623  0.85543565     0.43100
H1110       H  0.72617351  0.96144215  0.93150695     0.43100
C1111       C  0.87297213  0.49827528  0.58727310    -0.06000
C1112       C  0.84318693  0.01595810  0.57547320    -0.33400
C1113       C  0.81394937  0.01509468  0.59066770     0.35900
C1114       C  0.81383496  0.49741833  0.61855221    -0.06300
C1115       C  0.84276483  0.48225393  0.63164095    -0.33300
C1116       C  0.87216975  0.48232087  0.61610631     0.35800
H1117       H  0.84303762  0.02925710  0.55384688     0.16100
O1118       O  0.78642342  0.03138504  0.57784227    -0.60800
H1119       H  0.84257916  0.47008101  0.65386793     0.16100
O1120       O  0.89986083  0.46719019  0.62958352    -0.60900
H1121       H  0.90178641  0.44444105  0.62248075     0.43100
H1122       H  0.78412007  0.05327568  0.58713401     0.43100
C1123       C  0.69624436  0.50090296  0.61612251    -0.06000
C1124       C  0.66631980  0.01249400  0.62962378    -0.33400
C1125       C  0.63718082  0.01226824  0.61382701     0.35900
C1126       C  0.63746987  0.49927562  0.58427299    -0.06300
C1127       C  0.66696987  0.48720767  0.57027373    -0.33300
C1128       C  0.69612484  0.48817616  0.58572365     0.35800
H1129       H  0.66586348  0.02317849  0.65260041     0.16100
O1130       O  0.60911928  0.02543243  0.62806185    -0.60800
H1131       H  0.66753830  0.47629135  0.54739795     0.16100
O1132       O  0.72415432  0.47483659  0.57150357    -0.60900
H1133       H  0.73006201  0.49194849  0.55754875     0.43100
H1134       H  0.60598015  0.04851420  0.62192830     0.43100
N1135       N  0.55529224  0.99463045  0.44086810    -0.06600
N1136       N  0.57531117  0.50350851  0.41978058    -0.58700
N1137       N  0.52627942  0.92791380  0.46361554    -0.06300
N1138       N  0.52896125  0.89661448  0.45804622    -0.60900
N1139       N  0.50868436  0.94421922  0.44203332    -0.05900
N1140       N  0.99932737  0.92432886  0.42137124    -0.58700
N1141       N  0.57268180  0.97882195  0.46287845    -0.05600
N1142       N  0.60360202  0.97769911  0.45679827    -0.61200
C1143       C  0.60423017  0.99374371  0.42958000     0.95600
C1144       C  0.01201937  0.89470065  0.43172590     0.95300
N1145       N  0.50987350  0.94426287  0.05918633    -0.06800
N1146       N  0.00086019  0.92400987  0.08001097    -0.59300
N1147       N  0.57355791  0.97830778  0.03581326    -0.04500
N1148       N  0.60467359  0.97653731  0.04134087    -0.60600
N1149       N  0.55684361  0.99466008  0.05794281    -0.06800
N1150       N  0.57719927  0.50486879  0.07901660    -0.59600
N1151       N  0.52674302  0.92785488  0.03718569    -0.04600
N1152       N  0.52933884  0.89659038  0.04273434    -0.60700
Mn1153     Mn  0.55014445  0.95214993  0.00005888     1.18400
C1154       C  0.01306182  0.89428318  0.06935529     0.97600
C1155       C  0.60615648  0.99296512  0.06827218     0.98300
N1156       N  0.95063968  0.50005665  0.44284250    -0.06900
N1157       N  0.93015253  0.99203254  0.42078886    -0.63200
N1158       N  0.98091501  0.56670376  0.46437203    -0.05700
N1159       N  0.97688657  0.59789834  0.45814320    -0.63800
N1160       N  0.99731376  0.55037476  0.44201225    -0.06400
N1161       N  0.50441792  0.56995599  0.41991872    -0.63400
N1162       N  0.93388853  0.51650910  0.46490156    -0.05300
N1163       N  0.90286081  0.51980130  0.45847942    -0.64100
Mn1164     Mn  0.50249954  0.99736979  0.44065463     1.10700
C1165       C  0.90145391  0.50421159  0.43107987     0.98900
C1166       C  0.49167530  0.59954188  0.43038477     0.98900
N1167       N  0.99879964  0.54946092  0.05908914    -0.06400
N1168       N  0.50796021  0.56987318  0.07970331    -0.61700
N1169       N  0.93531458  0.51494185  0.03788504    -0.05700
N1170       N  0.90438891  0.51666222  0.04396109    -0.58500
N1171       N  0.95246315  0.49877910  0.05982598    -0.07000
N1172       N  0.93231930  0.99115288  0.08088116    -0.61300
N1173       N  0.98168334  0.56558858  0.03711035    -0.06000
N1174       N  0.97893188  0.59689954  0.04239514    -0.58500
Mn1175     Mn  0.00521174  0.49635233  0.06028632     1.20200
Mn1176     Mn  0.95729190  0.54200099  0.50108540     1.10100
Cl1177     Cl  0.50426499  0.49643798  0.00077664    -0.86500
C1178       C  0.49557802  0.59941289  0.06884429     0.95900
C1179       C  0.90339480  0.50045789  0.07102052     0.95700
C1180       C  0.50320575  0.77520850  0.13533328     0.79700
N1181       N  0.50327527  0.74698172  0.11958789    -0.78600
C1182       C  0.50286892  0.71873974  0.13518482     0.82200
N1183       N  0.50243613  0.71905068  0.16673688    -0.78500
C1184       C  0.50260370  0.74689306  0.18282794     0.82300
N1185       N  0.50289079  0.77490648  0.16692243    -0.80200
C1186       C  0.49963201  0.77640972  0.36524073     0.79700
N1187       N  0.49832393  0.74838415  0.38088615    -0.78600
C1188       C  0.49670918  0.72035699  0.36532528     0.82200
N1189       N  0.49669063  0.72065542  0.33370218    -0.78500
C1190       C  0.49800439  0.74845896  0.31771296     0.82300
N1191       N  0.49957393  0.77612764  0.33369793    -0.80200
C1192       C  0.72619845  0.99560133  0.13398085     0.79700
N1193       N  0.75459414  0.99586460  0.11893498    -0.78600
C1194       C  0.78246978  0.99509099  0.13508535     0.82200
N1195       N  0.78181229  0.99390357  0.16661625    -0.78500
C1196       C  0.75354966  0.99386801  0.18211189     0.82300
N1197       N  0.72587600  0.99479242  0.16554720    -0.80200
C1198       C  0.72456759  0.99856133  0.36476083     0.79700
N1199       N  0.75241883  0.99992606  0.38044990    -0.78600
C1200       C  0.78075089  0.99932354  0.36507058     0.82200
N1201       N  0.78105799  0.99728187  0.33358065    -0.78500
C1202       C  0.75350713  0.99604204  0.31737466     0.82300
N1203       N  0.72533839  0.99671619  0.33319947    -0.80200
C1204       C  0.75308447  0.99358666  0.21673136    -0.06000
C1205       C  0.78226872  0.99177904  0.23310138    -0.33400
C1206       C  0.78294014  0.99218219  0.26559797     0.35900
C1207       C  0.75395472  0.99451102  0.28277655    -0.06300
C1208       C  0.72516616  0.49844749  0.26654469    -0.33300
C1209       C  0.72436019  0.49865417  0.23400539     0.35800
H1210       H  0.80494701  0.99017180  0.22074147     0.16100
O1211       O  0.81220135  0.99079028  0.28010013    -0.60800
H1212       H  0.70254024  0.50012339  0.27900205     0.16100
O1213       O  0.69504401  0.50078566  0.21949269    -0.60900
H1214       H  0.68741203  0.52423856  0.21766652     0.43100
H1215       H  0.81996899  0.96745388  0.28274923     0.43100
C1216       C  0.50179169  0.74691794  0.21736181    -0.06000
C1217       C  0.99245153  0.77613237  0.23317964    -0.33400
C1218       C  0.99083414  0.77706741  0.26564578     0.35900
C1219       C  0.49868390  0.74835684  0.28320255    -0.06300
C1220       C  0.50777728  0.71918556  0.26732387    -0.33300
C1221       C  0.50963148  0.71830529  0.23487055     0.35800
H1222       H  0.98614885  0.79845336  0.22042461     0.16100
O1223       O  0.98126368  0.80615898  0.27985213    -0.60800
H1224       H  0.51413000  0.69687784  0.28009558     0.16100
O1225       O  0.51959564  0.68927777  0.22072679    -0.60900
H1226       H  0.54330392  0.68800005  0.21883025     0.43100
H1227       H  0.95757111  0.80768912  0.28188627     0.43100
C1228       C  0.49297121  0.63016721  0.41350917    -0.06000
C1229       C  0.48902066  0.65936133  0.43005057    -0.33400
C1230       C  0.49042320  0.68878803  0.41494627     0.35900
C1231       C  0.49531267  0.68957451  0.38241904    -0.06300
C1232       C  0.99952733  0.66032796  0.36597257    -0.33300
C1233       C  0.99838198  0.63094002  0.38120495     0.35800
H1234       H  0.48517470  0.65941422  0.45497574     0.16100
O1235       O  0.48624373  0.71658772  0.43227020    -0.60800
H1236       H  0.00365915  0.65993538  0.34109845     0.16100
O1237       O  0.00205487  0.60299939  0.36408655    -0.60900
H1238       H  0.97990690  0.59964465  0.35825096     0.43100
H1239       H  0.50773261  0.71830031  0.44117223     0.43100
C1240       C  0.50187285  0.80683845  0.38237540    -0.06000
C1241       C  0.51275541  0.80555153  0.41331208    -0.33400
C1242       C  0.51591515  0.83383049  0.42975008     0.35900
C1243       C  0.50825489  0.86421164  0.41531734    -0.06300
C1244       C  0.99771756  0.86560416  0.38447688    -0.33300
C1245       C  0.99442424  0.83745261  0.36804113     0.35800
H1246       H  0.51915421  0.78251577  0.42483149     0.16100
O1247       O  0.52633068  0.83137289  0.45996480    -0.60800
H1248       H  0.99173502  0.88865233  0.37287411     0.16100
O1249       O  0.98319225  0.84029861  0.33811328    -0.60900
H1250       H  0.95948179  0.84160436  0.33992888     0.43100
H1251       H  0.50642952  0.83235040  0.47257844     0.43100
C1252       C  0.49836735  0.63006972  0.08503896    -0.06000
C1253       C  0.50803685  0.62920039  0.11622263    -0.33400
C1254       C  0.50971267  0.65765806  0.13276309     0.35900
C1255       C  0.50214254  0.68799054  0.11802657    -0.06300
C1256       C  0.99341016  0.68841197  0.08647758    -0.33300
C1257       C  0.99135539  0.65982945  0.07011669     0.35800
H1258       H  0.51391608  0.60631214  0.12813875     0.16100
O1259       O  0.51958609  0.65529780  0.16314222    -0.60800
H1260       H  0.98785427  0.71120659  0.07435087     0.16100
O1261       O  0.98333045  0.66163672  0.03919010    -0.60900
H1262       H  0.95948859  0.66625138  0.03875292     0.43100
H1263       H  0.50060253  0.65038891  0.17503102     0.43100
C1264       C  0.50431436  0.80588228  0.11823813    -0.06000
C1265       C  0.51816658  0.80507667  0.08846664    -0.33400
C1266       C  0.52084673  0.83361105  0.07227765     0.35900
C1267       C  0.50948016  0.86389396  0.08570983    -0.06300
C1268       C  0.99466638  0.86439259  0.11479060    -0.33300
C1269       C  0.99184127  0.83587627  0.13099032     0.35800
H1270       H  0.52756752  0.78220709  0.07782060     0.16100
O1271       O  0.53505763  0.83145081  0.04349336    -0.60800
H1272       H  0.98523347  0.88728295  0.12536673     0.16100
O1273       O  0.97688558  0.83799212  0.15944146    -0.60900
H1274       H  0.95410212  0.83577782  0.15506205     0.43100
H1275       H  0.51723712  0.82989561  0.02872643     0.43100
C1276       C  0.81116619  0.00051726  0.38229677    -0.06000
C1277       C  0.84065159  0.98797859  0.36844509    -0.33400
C1278       C  0.86982227  0.98859448  0.38403999     0.35900
C1279       C  0.87003112  0.00250750  0.41389253    -0.06300
C1280       C  0.84154584  0.51383121  0.42832937    -0.33300
C1281       C  0.81230415  0.51272879  0.41300123     0.35800
H1282       H  0.84117479  0.97727023  0.34547976     0.16100
O1283       O  0.89794034  0.97605385  0.36952998    -0.60800
H1284       H  0.84100283  0.52385963  0.45158251     0.16100
O1285       O  0.78419822  0.52504139  0.42768357    -0.60900
H1286       H  0.77984049  0.50807566  0.44257188     0.43100
H1287       H  0.90086720  0.95265394  0.37440464     0.43100
C1288       C  0.63434692  0.99715431  0.41282916    -0.06000
C1289       C  0.66493770  0.48853939  0.42898204    -0.33400
C1290       C  0.69423348  0.48927090  0.41374677     0.35900
C1291       C  0.69365901  0.99876541  0.38179408    -0.06300
C1292       C  0.66434583  0.00392573  0.36540171    -0.33300
C1293       C  0.63491792  0.00312545  0.38061080     0.35800
H1294       H  0.66532614  0.48198479  0.45337101     0.16100
O1295       O  0.72215953  0.48131516  0.43026961    -0.60800
H1296       H  0.66412517  0.00833423  0.34057493     0.16100
O1297       O  0.60702788  0.00750294  0.36357398    -0.60900
H1298       H  0.60420366  0.98567456  0.35604755     0.43100
H1299       H  0.72782297  0.45761687  0.42776437     0.43100
C1300       C  0.87205563  0.99969767  0.08759014    -0.06000
C1301       C  0.84408917  0.51304513  0.07469960    -0.33400
C1302       C  0.81481217  0.51275959  0.08991293     0.35900
C1303       C  0.81312433  0.99653559  0.11853214    -0.06300
C1304       C  0.84221394  0.98106296  0.13100397    -0.33300
C1305       C  0.87150572  0.98227127  0.11563221     0.35800
H1306       H  0.84405410  0.52581851  0.05278328     0.16100
O1307       O  0.78743013  0.52896222  0.07673805    -0.60800
H1308       H  0.84222303  0.96765334  0.15256373     0.16100
O1309       O  0.89932667  0.96658498  0.12841206    -0.60900
H1310       H  0.90129312  0.94420900  0.12026790     0.43100
H1311       H  0.78541302  0.55112639  0.08537455     0.43100
C1312       C  0.69576971  0.99645606  0.11631026    -0.06000
C1313       C  0.66685105  0.51302679  0.12963653    -0.33400
C1314       C  0.63770707  0.51273206  0.11387005     0.35900
C1315       C  0.63669870  0.99590077  0.08467301    -0.06300
C1316       C  0.66608068  0.98395245  0.07033137    -0.33300
C1317       C  0.69538598  0.98433268  0.08572427     0.35800
H1318       H  0.66636775  0.52336388  0.15276333     0.16100
O1319       O  0.60960155  0.52541963  0.12830922    -0.60800
H1320       H  0.66643563  0.97373452  0.04716403     0.16100
O1321       O  0.72329688  0.97111148  0.07122437    -0.60900
H1322       H  0.72916149  0.98837297  0.05742849     0.43100
H1323       H  0.60619242  0.54857802  0.12245300     0.43100
N1324       N  0.55472827  0.99357498  0.94094490    -0.06600
N1325       N  0.57478131  0.50285494  0.91957176    -0.58700
N1326       N  0.52536429  0.92731587  0.96424223    -0.06300
N1327       N  0.52823486  0.89600092  0.95868559    -0.60900
N1328       N  0.50780915  0.94352302  0.94257623    -0.05900
N1329       N  0.99821262  0.92362927  0.92179820    -0.58700
N1330       N  0.57200176  0.97792517  0.96311608    -0.05600
N1331       N  0.60294545  0.97653803  0.95707884    -0.61200
C1332       C  0.60371629  0.99224744  0.92970350     0.95600
C1333       C  0.01066649  0.89397687  0.93225911     0.95300
N1334       N  0.51058349  0.94414010  0.55867772    -0.06800
N1335       N  0.00182406  0.92408039  0.57999342    -0.59300
N1336       N  0.57411558  0.97866080  0.53569815    -0.04500
N1337       N  0.60520688  0.97760120  0.54102147    -0.60600
N1338       N  0.55725467  0.99474388  0.55789355    -0.06800
N1339       N  0.57715834  0.50528197  0.57920506    -0.59600
N1340       N  0.52756555  0.92784468  0.53667163    -0.04600
N1341       N  0.53042275  0.89655544  0.54228686    -0.60700
Mn1342     Mn  0.55093004  0.95257459  0.49968045     1.18400
C1343       C  0.01429203  0.89444010  0.56937641     0.97600
C1344       C  0.60648945  0.99420423  0.56789121     0.98300
N1345       N  0.95039210  0.49875310  0.94321629    -0.06900
N1346       N  0.92978576  0.99077581  0.92104360    -0.63200
N1347       N  0.98038334  0.56569566  0.96429851    -0.05700
N1348       N  0.97595397  0.59685285  0.95794033    -0.63800
N1349       N  0.99673390  0.54941703  0.94188521    -0.06400
N1350       N  0.50398108  0.56919917  0.91973010    -0.63400
N1351       N  0.93364566  0.51519079  0.96527745    -0.05300
N1352       N  0.90257294  0.51791508  0.95916182    -0.64100
Mn1353     Mn  0.50192509  0.99661686  0.94068178     1.10700
C1354       C  0.90115717  0.50196838  0.93194844     0.98900
C1355       C  0.49127148  0.59882358  0.93014516     0.98900
N1356       N  0.99892001  0.55014845  0.55907517    -0.06400
N1357       N  0.50847821  0.57013248  0.57970789    -0.61700
N1358       N  0.93528184  0.51577996  0.53761571    -0.05700
N1359       N  0.90434046  0.51738425  0.54363525    -0.58500
N1360       N  0.95241000  0.49952397  0.55951919    -0.07000
N1361       N  0.93248906  0.99113719  0.58104814    -0.61300
N1362       N  0.98174165  0.56636433  0.53719965    -0.06000
N1363       N  0.97920888  0.59766008  0.54247133    -0.58500
Mn1364     Mn  0.00515012  0.49702161  0.56013747     1.20200
Mn1365     Mn  0.95710607  0.54101434  0.00120586     1.10100
Cl1366     Cl  0.50451452  0.49693450  0.50074066    -0.86500
C1367       C  0.49624953  0.59971690  0.56881459     0.95900
C1368       C  0.90333902  0.50100342  0.57061321     0.95700
C1369       C  0.50401508  0.77544098  0.63540615     0.79700
N1370       N  0.50402831  0.74727105  0.61958940    -0.78600
C1371       C  0.50355593  0.71900547  0.63509523     0.82200
N1372       N  0.50298126  0.71919514  0.66664700    -0.78500
C1373       C  0.50311121  0.74700218  0.68282372     0.82300
N1374       N  0.50356298  0.77504596  0.66700096    -0.80200
C1375       C  0.49969535  0.77580463  0.86535098     0.79700
N1376       N  0.49840625  0.74772151  0.88091262    -0.78600
C1377       C  0.49676293  0.71974350  0.86526485     0.82200
N1378       N  0.49674937  0.72014427  0.83363289    -0.78500
C1379       C  0.49803878  0.74801827  0.81773081     0.82300
N1380       N  0.49958716  0.77563313  0.83380954    -0.80200
C1381       C  0.72595964  0.99845518  0.63405832     0.79700
N1382       N  0.75450355  0.99824746  0.61917873    -0.78600
C1383       C  0.78229501  0.99739936  0.63546458     0.82200
N1384       N  0.78141134  0.99654317  0.66699937    -0.78500
C1385       C  0.75299787  0.99696638  0.68235824     0.82300
N1386       N  0.72538599  0.99799669  0.66564353    -0.80200
C1387       C  0.72412208  0.99706879  0.86509475     0.79700
N1388       N  0.75204563  0.99759383  0.88088719    -0.78600
C1389       C  0.78036195  0.99733839  0.86558227     0.82200
N1390       N  0.78060250  0.99650140  0.83403084    -0.78500
C1391       C  0.75294797  0.99613365  0.81771451     0.82300
N1392       N  0.72479053  0.99645963  0.83348649    -0.80200
C1393       C  0.75241370  0.99653673  0.71699014    -0.06000
C1394       C  0.78165431  0.99284055  0.73342032    -0.33400
C1395       C  0.78231779  0.99240228  0.76592135     0.35900
C1396       C  0.75327691  0.99585958  0.78306966    -0.06300
C1397       C  0.72518937  0.49953928  0.76671258    -0.33300
C1398       C  0.72442568  0.50014735  0.73416886     0.35800
H1399       H  0.80440570  0.99015404  0.72110016     0.16100
O1400       O  0.81167314  0.98879975  0.78047908    -0.60800
H1401       H  0.70250114  0.50196467  0.77912836     0.16100
O1402       O  0.69505734  0.50366851  0.71963817    -0.60900
H1403       H  0.68848517  0.52730324  0.71784639     0.43100
H1404       H  0.81791553  0.96516981  0.78277907     0.43100
C1405       C  0.50218341  0.74693215  0.71736160    -0.06000
C1406       C  0.99472558  0.77595606  0.73350293    -0.33400
C1407       C  0.99252782  0.77684209  0.76593494     0.35900
C1408       C  0.49879664  0.74806360  0.78320972    -0.06300
C1409       C  0.50821444  0.71901293  0.76723354    -0.33300
C1410       C  0.51025288  0.71829941  0.73478244     0.35800
H1411       H  0.98922840  0.79840589  0.72079105     0.16100
O1412       O  0.98361318  0.80607369  0.78011138    -0.60800
H1413       H  0.51473441  0.69668839  0.77993592     0.16100
O1414       O  0.52069827  0.68942800  0.72054802    -0.60900
H1415       H  0.54435025  0.68863229  0.71855680     0.43100
H1416       H  0.95980799  0.80857266  0.78135838     0.43100
C1417       C  0.49273182  0.62946255  0.91329606    -0.06000
C1418       C  0.48826968  0.65869946  0.92977705    -0.33400
C1419       C  0.48970708  0.68814931  0.91471378     0.35900
C1420       C  0.49528431  0.68891897  0.88229334    -0.06300
C1421       C  0.99773164  0.65966040  0.86573607    -0.33300
C1422       C  0.99663125  0.63018438  0.88085627     0.35800
H1423       H  0.48390399  0.65878619  0.95462192     0.16100
O1424       O  0.48473980  0.71600209  0.93193175    -0.60800
H1425       H  0.00182718  0.65938226  0.84085838     0.16100
O1426       O  0.00016861  0.60231926  0.86362680    -0.60900
H1427       H  0.97799653  0.59917122  0.85767069     0.43100
H1428       H  0.50589199  0.71794794  0.94146660     0.43100
C1429       C  0.50193969  0.80618905  0.88256697    -0.06000
C1430       C  0.51299712  0.80481760  0.91344912    -0.33400
C1431       C  0.51604649  0.83306367  0.92999829     0.35900
C1432       C  0.50800294  0.86349262  0.91575696    -0.06300
C1433       C  0.99536217  0.86496144  0.88532970    -0.33300
C1434       C  0.99195620  0.83683719  0.86889218     0.35800
H1435       H  0.51962313  0.78174159  0.92483258     0.16100
O1436       O  0.52677546  0.83052516  0.96010991    -0.60800
H1437       H  0.98901832  0.88803787  0.87386574     0.16100
O1438       O  0.98021353  0.83972018  0.83914388    -0.60900
H1439       H  0.95654099  0.84097860  0.84132709     0.43100
H1440       H  0.50706172  0.83074713  0.97288105     0.43100
C1441       C  0.49929631  0.63041785  0.58487266    -0.06000
C1442       C  0.51112170  0.62955594  0.61536633    -0.33400
C1443       C  0.51281188  0.65803816  0.63189368     0.35900
C1444       C  0.50303199  0.68834572  0.61782537    -0.06300
C1445       C  0.99160119  0.68919279  0.58745598    -0.33300
C1446       C  0.98916058  0.66070249  0.57109592     0.35800
H1447       H  0.51870440  0.60665831  0.62677138     0.16100
O1448       O  0.52493852  0.65582065  0.66151792    -0.60800
H1449       H  0.98350341  0.71212572  0.57632046     0.16100
O1450       O  0.97738283  0.66284741  0.54131219    -0.60900
H1451       H  0.95362103  0.66589868  0.54360471     0.43100
H1452       H  0.50750115  0.64918130  0.67455269     0.43100
C1453       C  0.50543839  0.80610127  0.61833925    -0.06000
C1454       C  0.51806114  0.80511205  0.58802600    -0.33400
C1455       C  0.52083121  0.83354732  0.57169313     0.35900
C1456       C  0.51079876  0.86389841  0.58551538    -0.06300
C1457       C  0.99855509  0.86471061  0.61601191    -0.33300
C1458       C  0.99599137  0.83624834  0.63238458     0.35800
H1459       H  0.52634940  0.78216249  0.57698750     0.16100
O1460       O  0.53365558  0.83123337  0.54231290    -0.60800
H1461       H  0.99063460  0.88765815  0.62720246     0.16100
O1462       O  0.98321351  0.83855356  0.66180290    -0.60900
H1463       H  0.95989509  0.83769732  0.65899537     0.43100
H1464       H  0.51526118  0.82895773  0.52845601     0.43100
C1465       C  0.81074148  0.99803802  0.88298536    -0.06000
C1466       C  0.84017332  0.98489811  0.86942599    -0.33400
C1467       C  0.86933823  0.98558971  0.88503992     0.35900
C1468       C  0.86958574  0.00025772  0.91456705    -0.06300
C1469       C  0.84125882  0.51188534  0.92901391    -0.33300
C1470       C  0.81205855  0.51097906  0.91355026     0.35800
H1471       H  0.84063587  0.97377720  0.84664520     0.16100
O1472       O  0.89741902  0.97244354  0.87082279    -0.60800
H1473       H  0.84070643  0.52242623  0.95205408     0.16100
O1474       O  0.78398801  0.52408913  0.92784064    -0.60900
H1475       H  0.77914777  0.50754896  0.94298352     0.43100
H1476       H  0.90030472  0.94925083  0.87654067     0.43100
C1477       C  0.63389850  0.99538647  0.91300454    -0.06000
C1478       C  0.66439622  0.48821865  0.92896937    -0.33400
C1479       C  0.69373643  0.48890274  0.91382464     0.35900
C1480       C  0.69323020  0.99701005  0.88207147    -0.06300
C1481       C  0.66391558  0.00262948  0.86572272    -0.33300
C1482       C  0.63447884  0.00181484  0.88088046     0.35800
H1483       H  0.66472035  0.48161837  0.95334584     0.16100
O1484       O  0.72158919  0.48082007  0.93043248    -0.60800
H1485       H  0.66368803  0.00746758  0.84097266     0.16100
O1486       O  0.60657032  0.00675006  0.86389479    -0.60900
H1487       H  0.60356005  0.98512385  0.85595699     0.43100
H1488       H  0.72698452  0.45706747  0.92818464     0.43100
C1489       C  0.87220053  0.00041647  0.58797278    -0.06000
C1490       C  0.84397503  0.51312312  0.57421092    -0.33400
C1491       C  0.81473415  0.51291759  0.58953446     0.35900
C1492       C  0.81309754  0.99833308  0.61899216    -0.06300
C1493       C  0.84206758  0.98283150  0.63170705    -0.33300
C1494       C  0.87145101  0.98350744  0.61629534     0.35800
H1495       H  0.84385256  0.52557071  0.55211141     0.16100
O1496       O  0.78728143  0.52873657  0.57615970    -0.60800
H1497       H  0.84190655  0.96980721  0.65347500     0.16100
O1498       O  0.89915999  0.96785456  0.62931412    -0.60900
H1499       H  0.90082100  0.94527670  0.62176219     0.43100
H1500       H  0.78520303  0.55108963  0.58433671     0.43100
C1501       C  0.69570894  0.99913598  0.61613057    -0.06000
C1502       C  0.66682860  0.51405063  0.62970416    -0.33400
C1503       C  0.63768344  0.51372922  0.61391416     0.35900
C1504       C  0.63692524  0.99779207  0.58420646    -0.06300
C1505       C  0.66640177  0.98522539  0.57039386    -0.33300
C1506       C  0.69557106  0.98602226  0.58591009     0.35800
H1507       H  0.66635177  0.52455241  0.65276043     0.16100
O1508       O  0.60958364  0.52671002  0.62819210    -0.60800
H1509       H  0.66693229  0.97414193  0.54759610     0.16100
O1510       O  0.72357913  0.97222650  0.57194723    -0.60900
H1511       H  0.72974187  0.98905878  0.55780185     0.43100
H1512       H  0.60618997  0.54975034  0.62191906     0.43100
loop_ 
_geom_bond_atom_site_label_1 
_geom_bond_atom_site_label_2 
_geom_bond_distance 
_geom_bond_site_symmetry_2 
_ccdc_geom_bond_type 
N1            N7   1.316       .  A
N1          N380   1.322       .  A
N1          Mn30   2.204       .  S
N2          N379   1.322   1_545  A
N2          C387   1.354   1_545  A
N3            N5   1.316       .  A
N3            N4   1.321       .  A
N3         Mn208   2.202       .  S
N4          C766   1.353       .  A
N5          N762   1.319   1_455  A
N5          Mn30   2.202       .  S
N6          N761   1.320       .  A
N6           C10   1.354       .  A
N7            N8   1.317       .  A
N7         Mn208   2.194       .  S
N8            C9   1.351       .  A
C9          N380   1.355       .  A
C9          C154   1.480       .  S
C10         N760   1.353       .  A
C10         C865   1.482       .  S
N11          N17   1.315       .  A
N11         N768   1.320       .  A
N11       Mn1175   2.200       .  S
N12         N767   1.320       .  A
N12          C20   1.354       .  A
N13          N14   1.319       .  A
N13          N15   1.315       .  A
N13         Mn19   2.203       .  S
N14          C21   1.354       .  A
N15         N394   1.321       .  A
N15       Mn1175   2.202       .  S
N16         N393   1.321   1_545  A
N16         C399   1.354   1_545  A
N17          N18   1.319       .  A
N17         Mn19   2.195       .  S
N18         C776   1.353       .  A
Mn19        N192   2.204   1_554  S
Mn19        N196   2.193   1_554  S
Mn19       Cl421   2.532       .  S
C20         N774   1.353       .  A
C20         C889   1.481       .  S
C21         N394   1.354       .  A
C21         C181   1.483       .  S
N22          N28   1.315       .  A
N22         N401   1.321   1_545  A
N22       Mn1164   2.204   1_545  S
N23         N400   1.321       .  A
N23         C409   1.354       .  A
N24          N26   1.315       .  A
N24          N25   1.320       .  A
N24         Mn42   2.198       .  S
N25         C788   1.353       .  A
N26         N783   1.321       .  A
N26       Mn1164   2.205   1_545  S
N27         N782   1.321   1_455  A
N27          C32   1.354   1_455  A
N28          N29   1.319       .  A
N28         Mn42   2.195       .  S
N29          C31   1.352       .  A
Mn30       N1156   2.205   1_455  S
Mn30       N1160   2.205   1_455  S
Mn30       Cl610   2.556       .  S
C31         N401   1.354   1_545  A
C31         C523   1.482       .  S
C32         N781   1.353       .  A
C32          C94   1.483       .  S
N33          N39   1.316       .  A
N33         N790   1.320       .  A
N33         Mn41   2.205   1_545  S
N34         N789   1.320   1_455  A
N34          C44   1.355   1_455  A
N35          N36   1.317       .  A
N35          N37   1.316       .  A
N35        Mn231   2.196       .  S
N36          C45   1.351       .  A
N37         N416   1.322   1_545  A
N37         Mn41   2.202   1_545  S
N38         N415   1.322       .  A
N38         C423   1.355       .  A
N39          N40   1.318       .  A
N39        Mn231   2.190       .  S
N40         C800   1.351       .  A
Mn41       N1145   2.210       .  S
Mn41       N1149   2.205       .  S
Mn41       Cl799   2.558       .  S
Mn42        N224   2.194       .  S
Mn42        N228   2.188       .  S
Mn42       Cl988   2.532   1_545  S
Cl43       Mn397   2.533   1_554  S
Cl43       Mn597   2.557   1_554  S
Cl43       Mn797   2.557       .  S
Cl43       Mn987   2.532   1_465  S
C44         N796   1.351       .  A
C44         C118   1.479       .  S
C45         N416   1.354   1_545  A
C45         C544   1.480       .  S
C46          N47   1.358       .  A
C46          N51   1.358       .  A
C46         C130   1.481       .  S
N47          C48   1.357       .  A
C48          N49   1.357       .  A
C48         C121   1.477       .  S
N49          C50   1.358       .  A
C50          N51   1.359       .  A
C50          C82   1.488       .  S
C52          N53   1.359   1_455  A
C52          N57   1.358       .  A
C52         C106   1.485       .  S
N53          C54   1.359       .  A
C54          N55   1.359       .  A
C54          C97   1.488       .  S
N55          C56   1.359       .  A
C56          N57   1.357   1_655  A
C56          C85   1.488       .  S
C58          N59   1.355       .  A
C58          N63   1.359       .  A
C58         C178   1.483       .  S
N59          C60   1.356       .  A
C60          N61   1.356       .  A
C60         C169   1.477       .  S
N61          C62   1.360       .  A
C62          N63   1.360       .  A
C62          C70   1.489       .  S
C64          N65   1.358       .  A
C64          N69   1.359       .  A
C64         C157   1.486       .  S
N65          C66   1.357       .  A
C66          N67   1.357       .  A
C66         C142   1.485       .  S
N67          C68   1.358       .  A
C68          N69   1.360       .  A
C68          C73   1.489       .  S
C70          C71   1.406       .  A
C70         C453   1.413       .  A
C71          C72   1.398       .  A
C71          H76   1.083       .  S
C72          C73   1.413       .  A
C72          O77   1.372       .  S
C73         C452   1.406       .  A
C74          C75   1.399       .  A
C74         C451   1.406       .  A
C74          H78   1.083       .  S
C75         C448   1.414       .  A
C75          O79   1.372       .  S
O77          H81   0.991       .  S
O79          H80   0.991   1_565  S
C82          C87   1.413       .  A
C82         C839   1.405   1_455  A
C83          C84   1.398       .  A
C83         C838   1.404       .  A
C83          H88   1.083       .  S
C84         C841   1.412       .  A
C84          O89   1.372       .  S
C85          C86   1.405   1_655  A
C85         C840   1.413       .  A
C86          C87   1.398       .  A
C86          H90   1.083       .  S
C87          O91   1.370       .  S
O89          H93   0.991       .  S
O91          H92   0.992       .  S
C94          C95   1.404       .  A
C94         C855   1.410   1_655  A
C95          C96   1.401       .  A
C95         H100   1.084       .  S
C96          C97   1.413       .  A
C96         O101   1.372       .  S
C97         C854   1.407   1_655  A
C98          C99   1.399       .  A
C98         C853   1.407       .  A
C98         H102   1.083       .  S
C99         C850   1.409       .  A
C99         O103   1.371       .  S
O101        H105   0.992   1_655  S
O103        H104   0.992       .  S
C106        C107   1.406       .  A
C106        C867   1.412   1_455  A
C107        C108   1.400       .  A
C107        H112   1.083       .  S
C108        C109   1.410       .  A
C108        O113   1.371       .  S
C109        C766   1.481       .  S
C109        C866   1.403   1_455  A
C110        C111   1.398       .  A
C110        C865   1.403       .  A
C110        H114   1.083       .  S
C111        C862   1.413       .  A
C111        O115   1.371       .  S
O113        H117   0.991       .  S
O115        H116   0.992       .  S
C118        C119   1.403   1_655  A
C118        C879   1.412       .  A
C119        C120   1.399       .  A
C119        H124   1.083       .  S
C120        C121   1.409       .  A
C120        O125   1.372       .  S
C121        C878   1.403   1_455  A
C122        C123   1.398       .  A
C122        C877   1.404       .  A
C122        H126   1.084       .  S
C123        C874   1.412       .  A
C123        O127   1.372       .  S
O125        H129   0.991       .  S
O127        H128   0.992       .  S
C130        C131   1.404       .  A
C130        C891   1.411   1_455  A
C131        C132   1.398       .  A
C131        H136   1.084       .  S
C132        C133   1.411       .  A
C132        O137   1.371       .  S
C133        C776   1.481       .  S
C133        C890   1.404   1_455  A
C134        C135   1.399       .  A
C134        C889   1.405       .  A
C134        H138   1.083       .  S
C135        C886   1.411       .  A
C135        O139   1.372       .  S
O137        H141   0.991       .  S
O139        H140   0.992       .  S
C142        C143   1.406       .  A
C142        C525   1.411       .  A
C143        C144   1.400       .  A
C143        H148   1.083       .  S
C144        C145   1.410       .  A
C144        O149   1.371       .  S
C145        C409   1.483       .  S
C145        C524   1.405       .  A
C146        C147   1.399       .  A
C146        C523   1.405       .  A
C146        H150   1.083       .  S
C147        C520   1.411       .  A
C147        O151   1.372       .  S
O149        H153   0.992       .  S
O151        H152   0.992       .  S
C154        C159   1.409       .  A
C154        C533   1.403       .  A
C155        C156   1.396       .  A
C155        C532   1.402       .  A
C155        H160   1.084       .  S
C156        C535   1.414       .  A
C156        O161   1.371       .  S
C157        C158   1.408       .  A
C157        C534   1.412       .  A
C158        C159   1.402       .  A
C158        H162   1.083       .  S
C159        O163   1.371       .  S
O161        H165   0.992       .  S
O163        H164   0.992       .  S
C166        C423   1.478       .  S
C166        C171   1.410       .  A
C166        C545   1.404       .  A
C167        C168   1.395       .  A
C167        C544   1.404       .  A
C167        H172   1.083       .  S
C168        C547   1.409   1_545  A
C168        O173   1.372       .  S
C169        C170   1.406       .  A
C169        C546   1.408       .  A
C170        C171   1.402       .  A
C170        H174   1.084       .  S
C171        O175   1.371       .  S
O173        H177   0.991       .  S
O175        H176   0.992       .  S
C178        C183   1.412       .  A
C178        C557   1.405       .  A
C179        C180   1.400       .  A
C179        C556   1.405   1_545  A
C179        H184   1.083       .  S
C180        C559   1.411   1_545  A
C180        O185   1.371       .  S
C181        C182   1.404       .  A
C181        C558   1.411       .  A
C182        C183   1.398       .  A
C182        H186   1.083       .  S
C183        O187   1.372       .  S
O185        H189   0.992       .  S
O187        H188   0.992       .  S
N190        N569   1.322       .  A
N190        N196   1.316       .  A
N190       Mn219   2.204       .  S
N191        N568   1.321   1_545  A
N191        C576   1.354   1_545  A
N192        N194   1.316       .  A
N192        N193   1.321       .  A
N193        C955   1.354       .  A
N194        N951   1.319   1_455  A
N194       Mn219   2.199       .  S
N195        N950   1.319       .  A
N195        C199   1.353       .  A
N196        N197   1.317       .  A
N197        C198   1.351       .  A
C198        N569   1.355       .  A
C198        C343   1.479       .  S
C199        N949   1.354       .  A
C199       C1054   1.481       .  S
N200        N206   1.315       .  A
N200        N957   1.320       .  A
N200      Mn1364   2.203       .  S
N201        N956   1.320       .  A
N201        C209   1.354       .  A
N202        N203   1.319       .  A
N202        N204   1.315       .  A
N202       Mn208   2.202       .  S
N203        C210   1.354       .  A
N204        N583   1.321       .  A
N204      Mn1364   2.202       .  S
N205        N582   1.321   1_545  A
N205        C588   1.355   1_545  A
N206        N207   1.319       .  A
N206       Mn208   2.197       .  S
N207        C965   1.353       .  A
Mn208      Cl610   2.534       .  S
C209        N963   1.353       .  A
C209       C1078   1.482       .  S
C210        N583   1.354       .  A
C210        C370   1.483       .  S
N211        N590   1.321       .  A
N211        N217   1.315   1_565  A
N211      Mn1353   2.203       .  S
N212        N589   1.321       .  A
N212        C598   1.354       .  A
N213        N215   1.315       .  A
N213        N214   1.320       .  A
N213       Mn231   2.202   1_556  S
N214        C977   1.353       .  A
N215        N972   1.322       .  A
N215      Mn1353   2.207   1_545  S
N216        N971   1.322   1_455  A
N216        C221   1.355   1_455  A
N217        N218   1.319       .  A
N217       Mn231   2.197   1_556  S
N218        C220   1.353       .  A
Mn219      N1345   2.203   1_455  S
Mn219      N1349   2.206   1_455  S
Mn219      Cl421   2.556   1_556  S
C220        N590   1.354   1_545  A
C220        C712   1.483       .  S
C221        N970   1.354       .  A
C221        C283   1.485       .  S
N222        N979   1.320       .  A
N222        N228   1.315       .  A
N222       Mn230   2.201   1_545  S
N223        N978   1.320   1_455  A
N223        C233   1.354   1_455  A
N224        N225   1.316       .  A
N224        N226   1.316       .  A
N225        C234   1.351       .  A
N226        N605   1.322   1_545  A
N226       Mn230   2.203   1_545  S
N227        N604   1.322       .  A
N227        C612   1.355       .  A
N228        N229   1.318       .  A
N229        C989   1.351       .  A
Mn230      N1334   2.206       .  S
Mn230      N1338   2.203       .  S
Mn230      Cl988   2.557       .  S
Mn231      Cl799   2.532   1_545  S
Cl232      Mn586   2.532       .  S
Cl232      Mn408   2.556       .  S
Cl232      Mn986   2.558       .  S
Cl232      Mn798   2.531   1_465  S
C233        N985   1.350       .  A
C233        C307   1.476       .  S
C234        N605   1.355   1_545  A
C234        C733   1.480       .  S
C235        N236   1.358       .  A
C235        N240   1.359       .  A
C235        C319   1.480       .  S
N236        C237   1.358       .  A
C237        N238   1.357       .  A
C237        C310   1.483       .  S
N238        C239   1.357       .  A
C239        N240   1.359       .  A
C239        C271   1.486   1_455  S
C241        N242   1.359   1_455  A
C241        N246   1.357   1_455  A
C241        C295   1.487       .  S
N242        C243   1.359       .  A
C243        N244   1.359       .  A
C243        C286   1.490       .  S
N244        C245   1.360       .  A
C245        N246   1.357       .  A
C245        C274   1.485       .  S
C247        N248   1.355       .  A
C247        N252   1.359       .  A
C247        C367   1.483       .  S
N248        C249   1.356       .  A
C249        N250   1.357       .  A
C249        C358   1.479       .  S
N250        C251   1.360       .  A
C251        N252   1.361       .  A
C251        C259   1.490       .  S
C253        N254   1.358       .  A
C253        N258   1.359       .  A
C253        C346   1.486       .  S
N254        C255   1.357       .  A
C255        N256   1.358       .  A
C255        C331   1.485       .  S
N256        C257   1.359       .  A
C257        N258   1.360       .  A
C257        C262   1.490       .  S
C259        C260   1.407       .  A
C259        C642   1.413       .  A
C260        C261   1.399       .  A
C260        H265   1.083       .  S
C261        C262   1.413       .  A
C261        O266   1.371       .  S
C262        C641   1.407       .  A
C263        C640   1.407       .  A
C263        C264   1.400   1_565  A
C263        H267   1.083   1_565  S
C264        C637   1.414   1_545  A
C264        O268   1.372       .  S
O266        H270   0.991       .  S
O268        H269   0.991       .  S
C271       C1028   1.405       .  A
C271        C276   1.413   1_655  A
C272       C1027   1.405       .  A
C272        C273   1.399       .  A
C272        H277   1.083       .  S
C273       C1030   1.413       .  A
C273        O278   1.370       .  S
C274       C1029   1.413       .  A
C274        C275   1.403   1_655  A
C275        C276   1.397       .  A
C275        H279   1.083       .  S
C276        O280   1.369       .  S
O278        H282   0.991       .  S
O280        H281   0.992       .  S
C283        C284   1.404       .  A
C283       C1044   1.410   1_655  A
C284        C285   1.401       .  A
C284        H289   1.083       .  S
C285        C286   1.413       .  A
C285        O290   1.372       .  S
C286       C1043   1.408   1_655  A
C287       C1042   1.408       .  A
C287        C288   1.402       .  A
C287        H291   1.083       .  S
C288       C1039   1.410       .  A
C288        O292   1.371       .  S
O290        H294   0.992       .  S
O292        H293   0.992       .  S
C295        C296   1.407       .  A
C295       C1056   1.413   1_455  A
C296        C297   1.401       .  A
C296        H301   1.083       .  S
C297        C298   1.409       .  A
C297        O302   1.371       .  S
C298        C955   1.481       .  S
C298       C1055   1.402   1_455  A
C299       C1054   1.403       .  A
C299        C300   1.397       .  A
C299        H303   1.083       .  S
C300       C1051   1.413       .  A
C300        O304   1.371       .  S
O302        H306   0.991       .  S
O304        H305   0.992       .  S
C307        C308   1.401   1_655  A
C307       C1068   1.410       .  A
C308        C309   1.397       .  A
C308        H313   1.084       .  S
C309        C310   1.413       .  A
C309        O314   1.370       .  S
C310       C1067   1.405   1_455  A
C311       C1066   1.405       .  A
C311        C312   1.399       .  A
C311        H315   1.083       .  S
C312       C1063   1.410       .  A
C312        O316   1.372       .  S
O314        H318   0.992       .  S
O316        H317   0.992       .  S
C319        C320   1.404       .  A
C319       C1080   1.409   1_455  A
C320        C321   1.399       .  A
C320        H325   1.084       .  S
C321        C322   1.412       .  A
C321        O326   1.371       .  S
C322        C965   1.483       .  S
C322       C1079   1.405   1_455  A
C323       C1078   1.405       .  A
C323        C324   1.399       .  A
C323        H327   1.083       .  S
C324       C1075   1.409       .  A
C324        O328   1.372       .  S
O326        H330   0.991       .  S
O328        H329   0.992       .  S
C331        C332   1.406       .  A
C331        C714   1.412       .  A
C332        C333   1.401       .  A
C332        H337   1.083       .  S
C333        C334   1.411       .  A
C333        O338   1.371       .  S
C334        C598   1.484       .  S
C334        C713   1.405       .  A
C335        C712   1.405       .  A
C335        C336   1.399       .  A
C335        H339   1.083       .  S
C336        C709   1.411   1_545  A
C336        O340   1.372       .  S
O338        H342   0.992       .  S
O340        H341   0.992       .  S
C343        C722   1.403       .  A
C343        C348   1.409       .  A
C344        C721   1.402       .  A
C344        C345   1.396       .  A
C344        H349   1.084       .  S
C345        C724   1.414       .  A
C345        O350   1.371       .  S
C346        C723   1.413       .  A
C346        C347   1.408       .  A
C347        C348   1.402       .  A
C347        H351   1.083       .  S
C348        O352   1.371       .  S
O350        H354   0.992       .  S
O352        H353   0.992       .  S
C355        C612   1.480       .  S
C355        C734   1.404       .  A
C355        C360   1.411       .  A
C356        C733   1.404       .  A
C356        C357   1.394       .  A
C356        H361   1.083       .  S
C357        C736   1.408   1_545  A
C357        O362   1.372       .  S
C358        C735   1.409       .  A
C358        C359   1.406       .  A
C359        C360   1.403       .  A
C359        H363   1.084       .  S
C360        O364   1.371       .  S
O362        H366   0.991       .  S
O364        H365   0.992       .  S
C367        C746   1.405       .  A
C367        C372   1.412       .  A
C368        C745   1.405   1_545  A
C368        C369   1.400       .  A
C368        H373   1.084       .  S
C369        C748   1.411   1_545  A
C369        O374   1.371       .  S
C370        C747   1.411       .  A
C370        C371   1.404       .  A
C371        C372   1.398       .  A
C371        H375   1.083       .  S
C372        O376   1.372       .  S
O374        H378   0.992       .  S
O376        H377   0.992       .  S
N379        N385   1.316       .  A
N379       Mn408   2.202       .  S
N381        N383   1.316       .  A
N381        N382   1.320       .  A
N381       Mn586   2.200       .  S
N382       C1144   1.353       .  A
N383       N1140   1.320   1_455  A
N383       Mn408   2.203       .  S
N384       N1139   1.320       .  A
N384        C388   1.354       .  A
N385        N386   1.317       .  A
N385       Mn586   2.195       .  S
N386        C387   1.351       .  A
C387        C532   1.478       .  S
C388       N1138   1.353       .  A
C388       C1243   1.481       .  S
N389        N395   1.315       .  A
N389       N1146   1.322       .  A
N389       Mn797   2.210       .  S
N390       N1145   1.322       .  A
N390        C398   1.356       .  A
N391        N392   1.319       .  A
N391        N393   1.315       .  A
N391       Mn397   2.198   1_554  S
N392        C399   1.353       .  A
N393       Mn797   2.203       .  S
N395        N396   1.319       .  A
N395       Mn397   2.198   1_554  S
N396       C1154   1.353       .  A
Mn397       N570   2.201       .  S
Mn397       N574   2.193       .  S
C398       N1152   1.352       .  A
C398       C1267   1.486       .  S
C399        C559   1.483       .  S
N400        N406   1.315       .  A
N400       Mn786   2.204       .  S
N402        N404   1.316       .  A
N402        N403   1.320       .  A
N402       Mn420   2.197       .  S
N403       C1166   1.352       .  A
N404       N1161   1.321       .  A
N404       Mn786   2.206       .  S
N405       N1160   1.321   1_455  A
N405        C410   1.354   1_455  A
N406        N407   1.319       .  A
N406       Mn420   2.195       .  S
N407        C409   1.352       .  A
Mn408       N778   2.205   1_465  S
Mn408       N782   2.205   1_465  S
C410       N1159   1.352       .  A
C410        C472   1.480       .  S
N411       N1168   1.320       .  A
N411        N417   1.315       .  A
N411       Mn419   2.202       .  S
N412       N1167   1.320   1_455  A
N412        C422   1.355   1_455  A
N413        N414   1.315       .  A
N413        N415   1.315       .  A
N413       Mn609   2.190       .  S
N414        C423   1.350       .  A
N415       Mn419   2.201       .  S
N417        N418   1.319       .  A
N417       Mn609   2.193       .  S
N418       C1178   1.351       .  A
Mn419       N767   2.201       .  S
Mn419       N771   2.202       .  S
Mn419     Cl1177   2.558       .  S
Mn420       N602   2.192       .  S
Mn420       N606   2.191       .  S
Mn420     Cl1366   2.528       .  S
Cl421     Mn1175   2.558       .  S
Cl421     Mn1365   2.527   1_455  S
C422       N1174   1.351       .  A
C422        C496   1.478       .  S
C424        N425   1.361       .  A
C424        N429   1.359       .  A
C424        C508   1.485       .  S
N425        C426   1.361       .  A
C426        N427   1.357       .  A
C426        C499   1.487       .  S
N427        C428   1.356       .  A
C428        N429   1.359       .  A
C428        C460   1.485       .  S
C430        N431   1.360       .  A
C430        N435   1.357       .  A
C430        C484   1.486   1_655  S
N431        C432   1.360       .  A
C432        N433   1.360       .  A
C432        C475   1.491       .  S
N433        C434   1.359       .  A
C434        N435   1.356       .  A
C434        C463   1.484       .  S
C436        N437   1.356       .  A
C436        N441   1.358       .  A
C436        C556   1.482       .  S
N437        C438   1.357       .  A
C438        N439   1.357       .  A
C438        C547   1.478       .  S
N439        C440   1.360       .  A
C440        N441   1.359       .  A
C440        C448   1.489       .  S
C442        N443   1.358       .  A
C442        N447   1.359       .  A
C442        C535   1.488       .  S
N443        C444   1.357       .  A
C444        N445   1.357       .  A
C444        C520   1.483   1_565  S
N445        C446   1.358       .  A
C446        N447   1.360       .  A
C446        C451   1.489       .  S
C448        C449   1.406       .  A
C449        C450   1.398       .  A
C449        H454   1.083       .  S
C450        C451   1.414       .  A
C450        O455   1.371       .  S
C452        C453   1.399       .  A
C452        H456   1.083       .  S
C453        O457   1.371       .  S
O455        H459   0.991       .  S
O457        H458   0.991       .  S
C460       C1217   1.404   1_455  A
C460        C465   1.413       .  A
C461       C1216   1.404       .  A
C461        C462   1.398       .  A
C461        H466   1.083       .  S
C462       C1219   1.413       .  A
C462        O467   1.370       .  S
C463       C1218   1.413       .  A
C463        C464   1.403   1_655  A
C464        C465   1.398       .  A
C464        H468   1.083       .  S
C465        O469   1.370       .  S
O467        H471   0.991       .  S
O469        H470   0.992       .  S
C472        C473   1.403       .  A
C472       C1233   1.408       .  A
C473        C474   1.401       .  A
C473        H478   1.084       .  S
C474        C475   1.414       .  A
C474        O479   1.371       .  S
C475       C1232   1.408       .  A
C476       C1231   1.409       .  A
C476        C477   1.400       .  A
C476        H480   1.083       .  S
C477       C1228   1.408       .  A
C477        O481   1.372       .  S
O479        H483   0.992   1_655  S
O481        H482   0.992       .  S
C484        C485   1.406       .  A
C484       C1245   1.413   1_455  A
C485        C486   1.401       .  A
C485        H490   1.083       .  S
C486        C487   1.410       .  A
C486        O491   1.371       .  S
C487       C1144   1.481       .  S
C487       C1244   1.402   1_455  A
C488       C1243   1.402       .  A
C488        C489   1.397       .  A
C488        H492   1.083       .  S
C489       C1240   1.413       .  A
C489        O493   1.370       .  S
O491        H495   0.991       .  S
O493        H494   0.992       .  S
C496        C497   1.400   1_655  A
C496       C1257   1.410       .  A
C497        C498   1.397       .  A
C497        H502   1.084       .  S
C498        C499   1.414       .  A
C498        O503   1.370       .  S
C499       C1256   1.406   1_455  A
C500       C1255   1.406       .  A
C500        C501   1.401       .  A
C500        H504   1.083       .  S
C501       C1252   1.410       .  A
C501        O505   1.372       .  S
O503        H507   0.992   1_455  S
O505        H506   0.992       .  S
C508        C509   1.404       .  A
C508       C1269   1.412   1_455  A
C509        C510   1.400       .  A
C509        H514   1.084       .  S
C510        C511   1.413       .  A
C510        O515   1.371       .  S
C511       C1154   1.486       .  S
C511       C1268   1.405   1_455  A
C512       C1267   1.404       .  A
C512        C513   1.401       .  A
C512        H516   1.083       .  S
C513       C1264   1.413       .  A
C513        O517   1.372       .  S
O515        H519   0.991       .  S
O517        H518   0.992       .  S
C520        C521   1.406   1_545  A
C521        C522   1.400       .  A
C521        H526   1.083       .  S
C522        C523   1.410   1_565  A
C522        O527   1.371       .  S
C524        C525   1.400       .  A
C524        H528   1.083       .  S
C525        O529   1.372       .  S
O527        H531   0.992       .  S
O529        H530   0.992       .  S
C532        C537   1.408   1_565  A
C533        C534   1.396       .  A
C533        H538   1.084       .  S
C534        O539   1.371       .  S
C535        C536   1.408   1_565  A
C536        C537   1.401       .  A
C536        H540   1.083       .  S
C537        O541   1.371       .  S
O539        H543   0.992       .  S
O541        H542   0.992   1_545  S
C544        C549   1.411   1_545  A
C545        C546   1.393       .  A
C545        H550   1.083       .  S
C546        O551   1.372       .  S
C547        C548   1.405       .  A
C548        C549   1.402       .  A
C548        H552   1.084       .  S
C549        O553   1.371       .  S
O551        H555   0.991       .  S
O553        H554   0.992       .  S
C556        C561   1.411       .  A
C557        C558   1.401       .  A
C557        H562   1.083       .  S
C558        O563   1.371       .  S
C559        C560   1.405       .  A
C560        C561   1.399       .  A
C560        H564   1.083       .  S
C561        O565   1.372       .  S
O563        H567   0.992       .  S
O565        H566   0.992       .  S
N568        N574   1.316       .  A
N568       Mn597   2.201       .  S
N570        N572   1.316       .  A
N570        N571   1.321       .  A
N571       C1333   1.353       .  A
N572       N1329   1.319   1_455  A
N572       Mn597   2.202       .  S
N573       N1328   1.319       .  A
N573        C577   1.354       .  A
N574        N575   1.317       .  A
N575        C576   1.351       .  A
C576        C721   1.477       .  S
C577       N1327   1.353       .  A
C577       C1432   1.481       .  S
N578        N584   1.315       .  A
N578       N1335   1.321       .  A
N578       Mn986   2.207       .  S
N579       N1334   1.321       .  A
N579        C587   1.355       .  A
N580        N581   1.319       .  A
N580        N582   1.315       .  A
N580       Mn586   2.199       .  S
N581        C588   1.353       .  A
N582       Mn986   2.203       .  S
N584        N585   1.320       .  A
N584       Mn586   2.200       .  S
N585       C1343   1.353       .  A
C587       N1341   1.353       .  A
C587       C1456   1.485       .  S
C588        C748   1.484       .  S
N589        N595   1.315       .  A
N589       Mn975   2.204       .  S
N591        N593   1.315       .  A
N591        N592   1.320       .  A
N591       Mn609   2.197   1_556  S
N592       C1355   1.352       .  A
N593       N1350   1.321       .  A
N593       Mn975   2.205       .  S
N594       N1349   1.321   1_455  A
N594        C599   1.354   1_455  A
N595        N596   1.319       .  A
N595       Mn609   2.197   1_556  S
N596        C598   1.353       .  A
Mn597       N967   2.203   1_455  S
Mn597       N971   2.207   1_465  S
C599       N1348   1.352       .  A
C599        C661   1.481       .  S
N600       N1357   1.320       .  A
N600        N606   1.315       .  A
N600       Mn608   2.202       .  S
N601       N1356   1.320   1_455  A
N601        C611   1.355   1_455  A
N602        N603   1.316       .  A
N602        N604   1.315       .  A
N603        C612   1.351       .  A
N604       Mn608   2.201       .  S
N606        N607   1.318       .  A
N607       C1367   1.351       .  A
Mn608       N956   2.202       .  S
Mn608       N960   2.202       .  S
Mn608     Cl1366   2.558       .  S
Mn609     Cl1177   2.529       .  S
Cl610     Mn1364   2.557       .  S
Cl610     Mn1176   2.529   1_455  S
C611       N1363   1.351       .  A
C611        C685   1.480       .  S
C613        N614   1.361       .  A
C613        N618   1.358       .  A
C613        C697   1.486       .  S
N614        C615   1.360       .  A
C615        N616   1.357       .  A
C615        C688   1.484       .  S
N616        C617   1.356       .  A
C617        N618   1.359       .  A
C617        C649   1.486       .  S
C619        N620   1.360       .  A
C619        N624   1.356       .  A
C619        C673   1.485   1_655  S
N620        C621   1.360       .  A
C621        N622   1.360       .  A
C621        C664   1.492       .  S
N622        C623   1.359       .  A
C623        N624   1.356       .  A
C623        C652   1.485       .  S
C625        N626   1.356       .  A
C625        N630   1.358       .  A
C625        C745   1.482       .  S
N626        C627   1.357       .  A
C627        N628   1.357       .  A
C627        C736   1.479       .  S
N628        C629   1.360       .  A
C629        N630   1.359       .  A
C629        C637   1.490       .  S
C631        N632   1.357       .  A
C631        N636   1.360       .  A
C631        C724   1.487       .  S
N632        C633   1.356       .  A
C633        N634   1.357       .  A
C633        C709   1.482       .  S
N634        C635   1.359       .  A
C635        N636   1.360       .  A
C635        C640   1.490       .  S
C637        C638   1.406       .  A
C638        C639   1.398       .  A
C638        H643   1.083       .  S
C639        C640   1.414       .  A
C639        O644   1.371       .  S
C641        C642   1.400       .  A
C641        H645   1.083       .  S
C642        O646   1.371       .  S
O644        H648   0.991       .  S
O646        H647   0.991       .  S
C649       C1406   1.404   1_455  A
C649        C654   1.413       .  A
C650       C1405   1.404       .  A
C650        C651   1.398       .  A
C650        H655   1.083       .  S
C651       C1408   1.413       .  A
C651        O656   1.370       .  S
C652       C1407   1.413       .  A
C652        C653   1.404   1_655  A
C653        C654   1.398       .  A
C653        H657   1.083       .  S
C654        O658   1.370       .  S
O656        H660   0.991       .  S
O658        H659   0.992       .  S
C661        C662   1.403       .  A
C661       C1422   1.408       .  A
C662        C663   1.400       .  A
C662        H667   1.084       .  S
C663        C664   1.414       .  A
C663        O668   1.371       .  S
C664       C1421   1.409       .  A
C665       C1420   1.409       .  A
C665        C666   1.401       .  A
C665        H669   1.083       .  S
C666       C1417   1.408       .  A
C666        O670   1.372       .  S
O668        H672   0.992   1_655  S
O670        H671   0.992       .  S
C673        C674   1.406       .  A
C673       C1434   1.413   1_455  A
C674        C675   1.401       .  A
C674        H679   1.083       .  S
C675        C676   1.410       .  A
C675        O680   1.371       .  S
C676       C1333   1.481       .  S
C676       C1433   1.402   1_455  A
C677       C1432   1.402       .  A
C677        C678   1.397       .  A
C677        H681   1.083       .  S
C678       C1429   1.413       .  A
C678        O682   1.370       .  S
O680        H684   0.991       .  S
O682        H683   0.992       .  S
C685        C686   1.402   1_655  A
C685       C1446   1.411       .  A
C686        C687   1.398       .  A
C686        H691   1.083       .  S
C687        C688   1.412       .  A
C687        O692   1.371       .  S
C688       C1445   1.405   1_455  A
C689       C1444   1.405       .  A
C689        C690   1.401       .  A
C689        H693   1.083       .  S
C690       C1441   1.411       .  A
C690        O694   1.372       .  S
O692        H696   0.991       .  S
O694        H695   0.992       .  S
C697        C698   1.405       .  A
C697       C1458   1.413   1_455  A
C698        C699   1.400       .  A
C698        H703   1.083       .  S
C699        C700   1.411       .  A
C699        O704   1.371       .  S
C700       C1343   1.485       .  S
C700       C1457   1.404   1_455  A
C701       C1456   1.404       .  A
C701        C702   1.400       .  A
C701        H705   1.083       .  S
C702       C1453   1.413       .  A
C702        O706   1.371       .  S
O704        H708   0.991       .  S
O706        H707   0.992       .  S
C709        C710   1.405       .  A
C710        C711   1.400       .  A
C710        H715   1.083       .  S
C711        C712   1.411   1_565  A
C711        O716   1.371       .  S
C713        C714   1.400       .  A
C713        H717   1.083       .  S
C714        O718   1.372       .  S
O716        H720   0.992       .  S
O718        H719   0.992       .  S
C721        C726   1.408   1_565  A
C722        C723   1.396       .  A
C722        H727   1.084       .  S
C723        O728   1.371       .  S
C724        C725   1.408   1_565  A
C725        C726   1.401       .  A
C725        H729   1.083       .  S
C726        O730   1.371       .  S
O728        H732   0.992       .  S
O730        H731   0.992   1_545  S
C733        C738   1.411   1_545  A
C734        C735   1.393       .  A
C734        H739   1.083       .  S
C735        O740   1.372       .  S
C736        C737   1.406       .  A
C737        C738   1.403       .  A
C737        H741   1.084       .  S
C738        O742   1.371       .  S
O740        H744   0.991       .  S
O742        H743   0.992       .  S
C745        C750   1.411       .  A
C746        C747   1.401       .  A
C746        H751   1.084       .  S
C747        O752   1.371       .  S
C748        C749   1.405       .  A
C749        C750   1.399       .  A
C749        H753   1.083       .  S
C750        O754   1.372       .  S
O752        H756   0.992       .  S
O754        H755   0.992       .  S
N757       N1136   1.322       .  A
N757        N763   1.316       .  A
N757       Mn786   2.204       .  S
N758       N1135   1.322   1_545  A
N758       C1143   1.354   1_545  A
N759        N761   1.316       .  A
N759        N760   1.321       .  A
N759       Mn964   2.203       .  S
N761       Mn786   2.203       .  S
N762        C766   1.354   1_655  A
N763        N764   1.317       .  A
N763       Mn964   2.194       .  S
N764        C765   1.351       .  A
C765       N1136   1.355       .  A
C765        C910   1.480       .  S
N767        N773   1.315       .  A
N768        C776   1.354       .  A
N769        N770   1.319       .  A
N769        N771   1.315       .  A
N769       Mn775   2.202       .  S
N770        C777   1.354       .  A
N771       N1150   1.321       .  A
N772       N1149   1.321   1_545  A
N772       C1155   1.355   1_545  A
N773        N774   1.319       .  A
N773       Mn775   2.196       .  S
Mn775       N948   2.204   1_554  S
Mn775       N952   2.194   1_554  S
Mn775     Cl1177   2.533       .  S
C777       N1150   1.354       .  A
C777        C937   1.483       .  S
N778       N1157   1.321   1_545  A
N778        N784   1.315       .  A
N779       N1156   1.321       .  A
N779       C1165   1.354       .  A
N780        N782   1.315       .  A
N780        N781   1.320       .  A
N780       Mn798   2.199       .  S
N783        C788   1.354       .  A
N784        N785   1.319       .  A
N784       Mn798   2.194       .  S
N785        C787   1.352       .  A
Mn786     Cl1366   2.557       .  S
C787       N1157   1.354   1_545  A
C787       C1279   1.482       .  S
C788        C850   1.482       .  S
N789        N795   1.315       .  A
N789       Mn797   2.204   1_645  S
N790        C800   1.355       .  A
N791        N792   1.317       .  A
N791        N793   1.316       .  A
N791       Mn987   2.195       .  S
N792        C801   1.351       .  A
N793       N1172   1.322   1_545  A
N793       Mn797   2.202   1_645  S
N794       N1171   1.322       .  A
N794       C1179   1.355       .  A
N795        N796   1.318       .  A
N795       Mn987   2.191       .  S
Mn798       N980   2.195       .  S
Mn798       N984   2.187       .  S
Cl799     Mn1153   2.532       .  S
Cl799     Mn1353   2.557   1_554  S
C800        C874   1.479       .  S
C801       N1172   1.354   1_545  A
C801       C1300   1.480   1_545  S
C802        N803   1.358       .  A
C802        N807   1.358       .  A
C802        C886   1.480       .  S
N803        C804   1.358       .  A
C804        N805   1.357       .  A
C804        C877   1.479       .  S
N805        C806   1.357       .  A
C806        N807   1.358       .  A
C806        C838   1.483       .  S
C808        N809   1.359       .  A
C808        N813   1.357       .  A
C808        C862   1.485       .  S
N809        C810   1.359       .  A
C810        N811   1.359       .  A
C810        C853   1.488       .  S
N811        C812   1.359       .  A
C812        N813   1.357       .  A
C812        C841   1.485       .  S
C814        N815   1.355       .  A
C814        N819   1.359       .  A
C814        C934   1.482       .  S
N815        C816   1.356       .  A
C816        N817   1.356       .  A
C816        C925   1.477       .  S
N817        C818   1.360       .  A
C818        N819   1.360       .  A
C818        C826   1.489       .  S
C820        N821   1.358       .  A
C820        N825   1.359       .  A
C820        C913   1.486       .  S
N821        C822   1.357       .  A
C822        N823   1.357       .  A
C822        C898   1.485       .  S
N823        C824   1.358       .  A
C824        N825   1.360       .  A
C824        C829   1.489       .  S
C826        C827   1.406       .  A
C826       C1209   1.413       .  A
C827        C828   1.397       .  A
C827        H832   1.083       .  S
C828        C829   1.413       .  A
C828        O833   1.372       .  S
C829       C1208   1.407       .  A
C830       C1207   1.406       .  A
C830        C831   1.399       .  A
C830        H834   1.083       .  S
C831       C1204   1.414       .  A
C831        O835   1.372       .  S
O833        H837   0.991       .  S
O835        H836   0.992   1_565  S
C838        C843   1.411       .  A
C839        C840   1.398       .  A
C839        H844   1.083       .  S
C840        O845   1.370       .  S
C841        C842   1.405       .  A
C842        C843   1.400       .  A
C842        H846   1.083       .  S
C843        O847   1.372       .  S
O845        H849   0.991       .  S
O847        H848   0.992       .  S
C850        C851   1.404       .  A
C851        C852   1.401       .  A
C851        H856   1.084       .  S
C852        C853   1.414       .  A
C852        O857   1.372       .  S
C854        C855   1.400       .  A
C854        H858   1.083       .  S
C855        O859   1.371       .  S
O857        H861   0.992       .  S
O859        H860   0.992   1_455  S
C862        C863   1.406       .  A
C863        C864   1.400       .  A
C863        H868   1.083       .  S
C864        C865   1.410       .  A
C864        O869   1.371       .  S
C866        C867   1.398       .  A
C866        H870   1.083       .  S
C867        O871   1.371       .  S
O869        H873   0.992       .  S
O871        H872   0.992       .  S
C874        C875   1.403       .  A
C875        C876   1.398       .  A
C875        H880   1.083       .  S
C876        C877   1.410       .  A
C876        O881   1.372       .  S
C878        C879   1.398       .  A
C878        H882   1.084       .  S
C879        O883   1.372       .  S
O881        H885   0.991       .  S
O883        H884   0.992       .  S
C886        C887   1.404       .  A
C887        C888   1.399       .  A
C887        H892   1.084       .  S
C888        C889   1.411       .  A
C888        O893   1.371       .  S
C890        C891   1.398       .  A
C890        H894   1.083       .  S
C891        O895   1.372       .  S
O893        H897   0.991       .  S
O895        H896   0.992       .  S
C898        C899   1.406       .  A
C898       C1281   1.411       .  A
C899        C900   1.400       .  A
C899        H904   1.083       .  S
C900        C901   1.410       .  A
C900        O905   1.371       .  S
C901       C1165   1.483       .  S
C901       C1280   1.405       .  A
C902       C1279   1.405       .  A
C902        C903   1.399       .  A
C902        H906   1.083       .  S
C903       C1276   1.411       .  A
C903        O907   1.372       .  S
O905        H909   0.992       .  S
O907        H908   0.992       .  S
C910       C1289   1.403       .  A
C910        C915   1.409       .  A
C911       C1288   1.402       .  A
C911        C912   1.396       .  A
C911        H916   1.084       .  S
C912       C1291   1.414       .  A
C912        O917   1.371       .  S
C913       C1290   1.412       .  A
C913        C914   1.408       .  A
C914        C915   1.402       .  A
C914        H918   1.083       .  S
C915        O919   1.371       .  S
O917        H921   0.992       .  S
O919        H920   0.992       .  S
C922       C1179   1.478       .  S
C922       C1301   1.404       .  A
C922        C927   1.410       .  A
C923       C1300   1.404   1_545  A
C923        C924   1.395       .  A
C923        H928   1.083       .  S
C924       C1303   1.408   1_545  A
C924        O929   1.372       .  S
C925       C1302   1.408       .  A
C925        C926   1.406       .  A
C926        C927   1.402       .  A
C926        H930   1.084       .  S
C927        O931   1.371       .  S
O929        H933   0.991       .  S
O931        H932   0.992       .  S
C934       C1313   1.405       .  A
C934        C939   1.412       .  A
C935       C1312   1.405   1_545  A
C935        C936   1.400       .  A
C935        H940   1.083       .  S
C936       C1315   1.411   1_545  A
C936        O941   1.371       .  S
C937       C1314   1.411       .  A
C937        C938   1.404       .  A
C938        C939   1.398       .  A
C938        H942   1.083       .  S
C939        O943   1.372       .  S
O941        H945   0.992       .  S
O943        H944   0.992       .  S
N946       N1325   1.322       .  A
N946        N952   1.316       .  A
N946       Mn975   2.204       .  S
N947       N1324   1.321   1_545  A
N947       C1332   1.354   1_545  A
N948        N950   1.316       .  A
N948        N949   1.321       .  A
N950       Mn975   2.199       .  S
N951        C955   1.353   1_655  A
N952        N953   1.317       .  A
N953        C954   1.351       .  A
C954       N1325   1.355       .  A
C954       C1099   1.480       .  S
N956        N962   1.315       .  A
N957        C965   1.355       .  A
N958        N959   1.319       .  A
N958        N960   1.315       .  A
N958       Mn964   2.202       .  S
N959        C966   1.354       .  A
N960       N1339   1.321       .  A
N961       N1338   1.321   1_545  A
N961       C1344   1.354   1_545  A
N962        N963   1.319       .  A
N962       Mn964   2.196       .  S
Mn964     Cl1366   2.533       .  S
C966       N1339   1.354       .  A
C966       C1126   1.483       .  S
N967       N1346   1.321       .  A
N967        N973   1.315   1_565  A
N968       N1345   1.321       .  A
N968       C1354   1.354       .  A
N969        N971   1.315       .  A
N969        N970   1.320       .  A
N969       Mn987   2.202   1_556  S
N972        C977   1.355       .  A
N973        N974   1.319       .  A
N973       Mn987   2.198   1_556  S
N974        C976   1.353       .  A
Mn975     Cl1177   2.556   1_556  S
C976       N1346   1.354   1_545  A
C976       C1468   1.483       .  S
C977       C1039   1.485       .  S
N978        N984   1.315       .  A
N978       Mn986   2.201   1_645  S
N979        C989   1.354       .  A
N980        N981   1.317       .  A
N980        N982   1.316       .  A
N981        C990   1.351       .  A
N982       N1361   1.322   1_545  A
N982       Mn986   2.203   1_645  S
N983       N1360   1.322       .  A
N983       C1368   1.355       .  A
N984        N985   1.317       .  A
Cl988     Mn1342   2.533       .  S
Cl988     Mn1164   2.556       .  S
C989       C1063   1.477       .  S
C990       N1361   1.355   1_545  A
C990       C1489   1.481       .  S
C991        N992   1.358       .  A
C991        N996   1.359       .  A
C991       C1075   1.479       .  S
N992        C993   1.358       .  A
C993        N994   1.357       .  A
C993       C1066   1.483       .  S
N994        C995   1.357       .  A
C995        N996   1.359       .  A
C995       C1027   1.486       .  S
C997        N998   1.359       .  A
C997       N1002   1.357       .  A
C997       C1051   1.486       .  S
N998        C999   1.359       .  A
C999       N1000   1.359       .  A
C999       C1042   1.490       .  S
N1000      C1001   1.360       .  A
C1001      N1002   1.357       .  A
C1001      C1030   1.485       .  S
C1003      N1004   1.355       .  A
C1003      N1008   1.359       .  A
C1003      C1123   1.483       .  S
N1004      C1005   1.356       .  A
C1005      N1006   1.357       .  A
C1005      C1114   1.479       .  S
N1006      C1007   1.361       .  A
C1007      N1008   1.361       .  A
C1007      C1015   1.491       .  S
C1009      N1010   1.358       .  A
C1009      N1014   1.359       .  A
C1009      C1102   1.487       .  S
N1010      C1011   1.357       .  A
C1011      N1012   1.358       .  A
C1011      C1087   1.485       .  S
N1012      C1013   1.359       .  A
C1013      N1014   1.360       .  A
C1013      C1018   1.491       .  S
C1015      C1016   1.407       .  A
C1015      C1398   1.413       .  A
C1016      C1017   1.399       .  A
C1016      H1021   1.083       .  S
C1017      C1018   1.414       .  A
C1017      O1022   1.372       .  S
C1018      C1397   1.407       .  A
C1019      C1396   1.407       .  A
C1019      C1020   1.400       .  A
C1019      H1023   1.083   1_565  S
C1020      C1393   1.414       .  A
C1020      O1024   1.372   1_565  S
O1022      H1026   0.991       .  S
O1024      H1025   0.991       .  S
C1027      C1032   1.413       .  A
C1028      C1029   1.399       .  A
C1028      H1033   1.083       .  S
C1029      O1034   1.370       .  S
C1030      C1031   1.403       .  A
C1031      C1032   1.397       .  A
C1031      H1035   1.083       .  S
C1032      O1036   1.370       .  S
O1034      H1038   0.991       .  S
O1036      H1037   0.992       .  S
C1039      C1040   1.404       .  A
C1040      C1041   1.400       .  A
C1040      H1045   1.083       .  S
C1041      C1042   1.413       .  A
C1041      O1046   1.372       .  S
C1043      C1044   1.402       .  A
C1043      H1047   1.083       .  S
C1044      O1048   1.371       .  S
O1046      H1050   0.992       .  S
O1048      H1049   0.992   1_455  S
C1051      C1052   1.406       .  A
C1052      C1053   1.400       .  A
C1052      H1057   1.083       .  S
C1053      C1054   1.409       .  A
C1053      O1058   1.371       .  S
C1055      C1056   1.397       .  A
C1055      H1059   1.083       .  S
C1056      O1060   1.370       .  S
O1058      H1062   0.991       .  S
O1060      H1061   0.992       .  S
C1063      C1064   1.401       .  A
C1064      C1065   1.397       .  A
C1064      H1069   1.083       .  S
C1065      C1066   1.412       .  A
C1065      O1070   1.370       .  S
C1067      C1068   1.399       .  A
C1067      H1071   1.083       .  S
C1068      O1072   1.372       .  S
O1070      H1074   0.992       .  S
O1072      H1073   0.992       .  S
C1075      C1076   1.404       .  A
C1076      C1077   1.399       .  A
C1076      H1081   1.084       .  S
C1077      C1078   1.412       .  A
C1077      O1082   1.371       .  S
C1079      C1080   1.399       .  A
C1079      H1083   1.083       .  S
C1080      O1084   1.372       .  S
O1082      H1086   0.991       .  S
O1084      H1085   0.992       .  S
C1087      C1088   1.405       .  A
C1087      C1470   1.411       .  A
C1088      C1089   1.400       .  A
C1088      H1093   1.083       .  S
C1089      C1090   1.411       .  A
C1089      O1094   1.371       .  S
C1090      C1354   1.484       .  S
C1090      C1469   1.405       .  A
C1091      C1468   1.405       .  A
C1091      C1092   1.399       .  A
C1091      H1095   1.083       .  S
C1092      C1465   1.411   1_545  A
C1092      O1096   1.372       .  S
O1094      H1098   0.992       .  S
O1096      H1097   0.992       .  S
C1099      C1478   1.403       .  A
C1099      C1104   1.409       .  A
C1100      C1477   1.402       .  A
C1100      C1101   1.396       .  A
C1100      H1105   1.084       .  S
C1101      C1480   1.414       .  A
C1101      O1106   1.371       .  S
C1102      C1479   1.413       .  A
C1102      C1103   1.408       .  A
C1103      C1104   1.402       .  A
C1103      H1107   1.083       .  S
C1104      O1108   1.371       .  S
O1106      H1110   0.992       .  S
O1108      H1109   0.992       .  S
C1111      C1368   1.479       .  S
C1111      C1490   1.404       .  A
C1111      C1116   1.411       .  A
C1112      C1489   1.404       .  A
C1112      C1113   1.394       .  A
C1112      H1117   1.083       .  S
C1113      C1492   1.408   1_545  A
C1113      O1118   1.372       .  S
C1114      C1491   1.409       .  A
C1114      C1115   1.406       .  A
C1115      C1116   1.403       .  A
C1115      H1119   1.084       .  S
C1116      O1120   1.371       .  S
O1118      H1122   0.991       .  S
O1120      H1121   0.992       .  S
C1123      C1502   1.405       .  A
C1123      C1128   1.412       .  A
C1124      C1501   1.405   1_545  A
C1124      C1125   1.400       .  A
C1124      H1129   1.084       .  S
C1125      C1504   1.411   1_545  A
C1125      O1130   1.371       .  S
C1126      C1503   1.411       .  A
C1126      C1127   1.404       .  A
C1127      C1128   1.398       .  A
C1127      H1131   1.083       .  S
C1128      O1132   1.372       .  S
O1130      H1134   0.992       .  S
O1132      H1133   0.992       .  S
N1135      N1141   1.316       .  A
N1135     Mn1164   2.202       .  S
N1137      N1139   1.316       .  A
N1137      N1138   1.320       .  A
N1137     Mn1342   2.201       .  S
N1139     Mn1164   2.203       .  S
N1140      C1144   1.354   1_655  A
N1141      N1142   1.317       .  A
N1141     Mn1342   2.196       .  S
N1142      C1143   1.351       .  A
C1143      C1288   1.478       .  S
N1145      N1151   1.315       .  A
N1146      C1154   1.356       .  A
N1147      N1148   1.319       .  A
N1147      N1149   1.315       .  A
N1147     Mn1153   2.198       .  S
N1148      C1155   1.353       .  A
N1151      N1152   1.319       .  A
N1151     Mn1153   2.196       .  S
Mn1153     N1326   2.200   1_554  S
Mn1153     N1330   2.192   1_554  S
C1155      C1315   1.484       .  S
N1156      N1162   1.315       .  A
N1158      N1160   1.316       .  A
N1158      N1159   1.320       .  A
N1158     Mn1176   2.197       .  S
N1161      C1166   1.354       .  A
N1162      N1163   1.319       .  A
N1162     Mn1176   2.196       .  S
N1163      C1165   1.352       .  A
C1166      C1228   1.480       .  S
N1167      N1173   1.315       .  A
N1167     Mn1175   2.201   1_655  S
N1168      C1178   1.355       .  A
N1169      N1170   1.315       .  A
N1169      N1171   1.315       .  A
N1169     Mn1365   2.189       .  S
N1170      C1179   1.350       .  A
N1171     Mn1175   2.201   1_655  S
N1173      N1174   1.319       .  A
N1173     Mn1365   2.192       .  S
Mn1176     N1358   2.192       .  S
Mn1176     N1362   2.191       .  S
C1178      C1252   1.479       .  S
C1180      N1181   1.361       .  A
C1180      N1185   1.359       .  A
C1180      C1264   1.485       .  S
N1181      C1182   1.361       .  A
C1182      N1183   1.357       .  A
C1182      C1255   1.487       .  S
N1183      C1184   1.356       .  A
C1184      N1185   1.359       .  A
C1184      C1216   1.485       .  S
C1186      N1187   1.360       .  A
C1186      N1191   1.356       .  A
C1186      C1240   1.485       .  S
N1187      C1188   1.360       .  A
C1188      N1189   1.360       .  A
C1188      C1231   1.491       .  S
N1189      C1190   1.359       .  A
C1190      N1191   1.356       .  A
C1190      C1219   1.484       .  S
C1192      N1193   1.357       .  A
C1192      N1197   1.358       .  A
C1192      C1312   1.483       .  S
N1193      C1194   1.357       .  A
C1194      N1195   1.357       .  A
C1194      C1303   1.478       .  S
N1195      C1196   1.360       .  A
C1196      N1197   1.359       .  A
C1196      C1204   1.489       .  S
C1198      N1199   1.358       .  A
C1198      N1203   1.359       .  A
C1198      C1291   1.488       .  S
N1199      C1200   1.357       .  A
C1200      N1201   1.357       .  A
C1200      C1276   1.483   1_565  S
N1201      C1202   1.358       .  A
C1202      N1203   1.360       .  A
C1202      C1207   1.489       .  S
C1204      C1205   1.406       .  A
C1205      C1206   1.398       .  A
C1205      H1210   1.083       .  S
C1206      C1207   1.414       .  A
C1206      O1211   1.372       .  S
C1208      C1209   1.400       .  A
C1208      H1212   1.083       .  S
C1209      O1213   1.372       .  S
O1211      H1215   0.991       .  S
O1213      H1214   0.991       .  S
C1216      C1221   1.413       .  A
C1217      C1218   1.398       .  A
C1217      H1222   1.083       .  S
C1218      O1223   1.370       .  S
C1219      C1220   1.403       .  A
C1220      C1221   1.398       .  A
C1220      H1224   1.083       .  S
C1221      O1225   1.370       .  S
O1223      H1227   0.991       .  S
O1225      H1226   0.992       .  S
C1228      C1229   1.403       .  A
C1229      C1230   1.401       .  A
C1229      H1234   1.084       .  S
C1230      C1231   1.415       .  A
C1230      O1235   1.371       .  S
C1232      C1233   1.400       .  A
C1232      H1236   1.083   1_655  S
C1233      O1237   1.372   1_655  S
O1235      H1239   0.992       .  S
O1237      H1238   0.992   1_455  S
C1240      C1241   1.406       .  A
C1241      C1242   1.401       .  A
C1241      H1246   1.083       .  S
C1242      C1243   1.410       .  A
C1242      O1247   1.370       .  S
C1244      C1245   1.397       .  A
C1244      H1248   1.083       .  S
C1245      O1249   1.370       .  S
O1247      H1251   0.991       .  S
O1249      H1250   0.992       .  S
C1252      C1253   1.400       .  A
C1253      C1254   1.397       .  A
C1253      H1258   1.084       .  S
C1254      C1255   1.414       .  A
C1254      O1259   1.370       .  S
C1256      C1257   1.401       .  A
C1256      H1260   1.083       .  S
C1257      O1261   1.372       .  S
O1259      H1263   0.992       .  S
O1261      H1262   0.992       .  S
C1264      C1265   1.404       .  A
C1265      C1266   1.400       .  A
C1265      H1270   1.084       .  S
C1266      C1267   1.413       .  A
C1266      O1271   1.371       .  S
C1268      C1269   1.401       .  A
C1268      H1272   1.083       .  S
C1269      O1273   1.372       .  S
O1271      H1275   0.991       .  S
O1273      H1274   0.992       .  S
C1276      C1277   1.406   1_545  A
C1277      C1278   1.400       .  A
C1277      H1282   1.083       .  S
C1278      C1279   1.410   1_565  A
C1278      O1283   1.371       .  S
C1280      C1281   1.400       .  A
C1280      H1284   1.083       .  S
C1281      O1285   1.372       .  S
O1283      H1287   0.992       .  S
O1285      H1286   0.992       .  S
C1288      C1293   1.409   1_565  A
C1289      C1290   1.396       .  A
C1289      H1294   1.084       .  S
C1290      O1295   1.371       .  S
C1291      C1292   1.408   1_565  A
C1292      C1293   1.401       .  A
C1292      H1296   1.083       .  S
C1293      O1297   1.371       .  S
O1295      H1299   0.992       .  S
O1297      H1298   0.992   1_545  S
C1300      C1305   1.411       .  A
C1301      C1302   1.393       .  A
C1301      H1306   1.083       .  S
C1302      O1307   1.372       .  S
C1303      C1304   1.405       .  A
C1304      C1305   1.402       .  A
C1304      H1308   1.084       .  S
C1305      O1309   1.371       .  S
O1307      H1311   0.991       .  S
O1309      H1310   0.992       .  S
C1312      C1317   1.411       .  A
C1313      C1314   1.400       .  A
C1313      H1318   1.084       .  S
C1314      O1319   1.371       .  S
C1315      C1316   1.405       .  A
C1316      C1317   1.399       .  A
C1316      H1320   1.083       .  S
C1317      O1321   1.372       .  S
O1319      H1323   0.992       .  S
O1321      H1322   0.992       .  S
N1324      N1330   1.316       .  A
N1324     Mn1353   2.201       .  S
N1326      N1328   1.316       .  A
N1326      N1327   1.320       .  A
N1328     Mn1353   2.202       .  S
N1329      C1333   1.354   1_655  A
N1330      N1331   1.317       .  A
N1331      C1332   1.351       .  A
C1332      C1477   1.477       .  S
N1334      N1340   1.315       .  A
N1335      C1343   1.355       .  A
N1336      N1337   1.319       .  A
N1336      N1338   1.315       .  A
N1336     Mn1342   2.200       .  S
N1337      C1344   1.353       .  A
N1340      N1341   1.320       .  A
N1340     Mn1342   2.201       .  S
C1344      C1504   1.484       .  S
N1345      N1351   1.315       .  A
N1347      N1349   1.315       .  A
N1347      N1348   1.319       .  A
N1347     Mn1365   2.195   1_556  S
N1350      C1355   1.354       .  A
N1351      N1352   1.319       .  A
N1351     Mn1365   2.197   1_556  S
N1352      C1354   1.353       .  A
C1355      C1417   1.481       .  S
N1356      N1362   1.315       .  A
N1356     Mn1364   2.202   1_655  S
N1357      C1367   1.355       .  A
N1358      N1359   1.316       .  A
N1358      N1360   1.315       .  A
N1359      C1368   1.351       .  A
N1360     Mn1364   2.201   1_655  S
N1362      N1363   1.318       .  A
C1367      C1441   1.480       .  S
C1369      N1370   1.361       .  A
C1369      N1374   1.359       .  A
C1369      C1453   1.486       .  S
N1370      C1371   1.360       .  A
C1371      N1372   1.357       .  A
C1371      C1444   1.485       .  S
N1372      C1373   1.356       .  A
C1373      N1374   1.359       .  A
C1373      C1405   1.486       .  S
C1375      N1376   1.360       .  A
C1375      N1380   1.356       .  A
C1375      C1429   1.486       .  S
N1376      C1377   1.360       .  A
C1377      N1378   1.360       .  A
C1377      C1420   1.492       .  S
N1378      C1379   1.360       .  A
C1379      N1380   1.356       .  A
C1379      C1408   1.485       .  S
C1381      N1382   1.356       .  A
C1381      N1386   1.359       .  A
C1381      C1501   1.483       .  S
N1382      C1383   1.357       .  A
C1383      N1384   1.357       .  A
C1383      C1492   1.478       .  S
N1384      C1385   1.360       .  A
C1385      N1386   1.360       .  A
C1385      C1393   1.490       .  S
C1387      N1388   1.358       .  A
C1387      N1392   1.360       .  A
C1387      C1480   1.487       .  S
N1388      C1389   1.356       .  A
C1389      N1390   1.357       .  A
C1389      C1465   1.483       .  S
N1390      C1391   1.359       .  A
C1391      N1392   1.360       .  A
C1391      C1396   1.490       .  S
C1393      C1394   1.406       .  A
C1394      C1395   1.398       .  A
C1394      H1399   1.083       .  S
C1395      C1396   1.413       .  A
C1395      O1400   1.371       .  S
C1397      C1398   1.400       .  A
C1397      H1401   1.083       .  S
C1398      O1402   1.371       .  S
O1400      H1404   0.991       .  S
O1402      H1403   0.991       .  S
C1405      C1410   1.413       .  A
C1406      C1407   1.398       .  A
C1406      H1411   1.083       .  S
C1407      O1412   1.370       .  S
C1408      C1409   1.403       .  A
C1409      C1410   1.398       .  A
C1409      H1413   1.083       .  S
C1410      O1414   1.370       .  S
O1412      H1416   0.991       .  S
O1414      H1415   0.992       .  S
C1417      C1418   1.403       .  A
C1418      C1419   1.401       .  A
C1418      H1423   1.084       .  S
C1419      C1420   1.415       .  A
C1419      O1424   1.371       .  S
C1421      C1422   1.401       .  A
C1421      H1425   1.083   1_655  S
C1422      O1426   1.372   1_655  S
O1424      H1428   0.992       .  S
O1426      H1427   0.992   1_455  S
C1429      C1430   1.406       .  A
C1430      C1431   1.401       .  A
C1430      H1435   1.083       .  S
C1431      C1432   1.410       .  A
C1431      O1436   1.371       .  S
C1433      C1434   1.397       .  A
C1433      H1437   1.083       .  S
C1434      O1438   1.371       .  S
O1436      H1440   0.991       .  S
O1438      H1439   0.992       .  S
C1441      C1442   1.401       .  A
C1442      C1443   1.398       .  A
C1442      H1447   1.083       .  S
C1443      C1444   1.413       .  A
C1443      O1448   1.371       .  S
C1445      C1446   1.400       .  A
C1445      H1449   1.083       .  S
C1446      O1450   1.372       .  S
O1448      H1452   0.991       .  S
O1450      H1451   0.992       .  S
C1453      C1454   1.405       .  A
C1454      C1455   1.400       .  A
C1454      H1459   1.083       .  S
C1455      C1456   1.411       .  A
C1455      O1460   1.371       .  S
C1457      C1458   1.400       .  A
C1457      H1461   1.083       .  S
C1458      O1462   1.372       .  S
O1460      H1464   0.991       .  S
O1462      H1463   0.992       .  S
C1465      C1466   1.405       .  A
C1466      C1467   1.400       .  A
C1466      H1471   1.084       .  S
C1467      C1468   1.411   1_565  A
C1467      O1472   1.371       .  S
C1469      C1470   1.400       .  A
C1469      H1473   1.083       .  S
C1470      O1474   1.372       .  S
O1472      H1476   0.992       .  S
O1474      H1475   0.992       .  S
C1477      C1482   1.408   1_565  A
C1478      C1479   1.396       .  A
C1478      H1483   1.084       .  S
C1479      O1484   1.371       .  S
C1480      C1481   1.408   1_565  A
C1481      C1482   1.401       .  A
C1481      H1485   1.083       .  S
C1482      O1486   1.371       .  S
O1484      H1488   0.992       .  S
O1486      H1487   0.992   1_545  S
C1489      C1494   1.411   1_545  A
C1490      C1491   1.393       .  A
C1490      H1495   1.083       .  S
C1491      O1496   1.372       .  S
C1492      C1493   1.406       .  A
C1493      C1494   1.403       .  A
C1493      H1497   1.084       .  S
C1494      O1498   1.371       .  S
O1496      H1500   0.991       .  S
O1498      H1499   0.992       .  S
C1501      C1506   1.411       .  A
C1502      C1503   1.401       .  A
C1502      H1507   1.084       .  S
C1503      O1508   1.371       .  S
C1504      C1505   1.405       .  A
C1505      C1506   1.399       .  A
C1505      H1509   1.083       .  S
C1506      O1510   1.372       .  S
O1508      H1512   0.992       .  S
O1510      H1511   0.992       .  S
