geometry optimzed in LAMMPS
_audit_creation_date              2020-12-01 
_audit_creation_method            'lammps2cif' 
_symmetry_space_group_name_H-M    'P1' 
_symmetry_Int_Tables_number       1 
_symmetry_cell_setting            triclinic 
loop_ 
_symmetry_equiv_pos_as_xyz 
  x,y,z 
_cell_length_a                    36.74116156 
_cell_length_b                    35.45166521525776 
_cell_length_c                    38.842652188711874 
_cell_angle_alpha                 90.4971067723412 
_cell_angle_beta                  89.96072717415157 
_cell_angle_gamma                 88.87166215278779 
loop_ 
_atom_site_label 
_atom_site_type_symbol 
_atom_site_fract_x 
_atom_site_fract_y 
_atom_site_fract_z 
_atom_site_charge 
O1          O  0.06728626  0.00319384  0.44735008    -0.80400
O2          O  0.42531444  0.45410467  0.47669816    -0.80400
O3          O  0.03417064  0.42019407  0.48570465    -0.80400
O4          O  0.47304710  0.07884107  0.48141921    -0.80300
O5          O  0.49490595  0.44986080  0.45169103    -0.80500
O6          O  0.01153888  0.05426152  0.44526433    -0.80400
O7          O  0.43864343  0.01253376  0.46373163    -0.80400
O8          O  0.09118377  0.46721894  0.48744671    -0.80400
C9          C  0.09189857  0.48046181  0.45705471     1.09300
C10         C  0.41795411  0.48349884  0.45992049     1.09200
C11         C  0.51635085  0.42211095  0.45746906     1.09300
C12         C  0.48979472  0.08074048  0.45317106     1.09200
O13         O  0.03246057  0.08190764  0.01385849    -0.80400
O14         O  0.47475585  0.42438271  0.01692635    -0.80400
O15         O  0.06717613  0.49708369  0.05357922    -0.80400
O16         O  0.42318387  0.04917561  0.02317961    -0.80400
O17         O  0.43980810  0.49079419  0.03589657    -0.80400
O18         O  0.09036741  0.03294672  0.01351669    -0.80400
O19         O  0.49283213  0.05388910  0.04754936    -0.80300
O20         O  0.01183819  0.44644077  0.05490577    -0.80400
Co21       Co  0.04819405  0.04072314  0.48040466     1.51500
Co22       Co  0.46987657  0.47279538  0.99198165     1.51700
Co23       Co  0.04866945  0.46033096  0.52004931     1.51600
Co24       Co  0.46863628  0.03068402  0.00741852     1.51500
O25         O  0.01542042  0.00118468  0.50024023    -1.42300
C26         C  0.01364561  0.08122214  0.04152650     1.09300
C27         C  0.48986078  0.42144169  0.04579711     1.09300
C28         C  0.09155399  0.01913473  0.04372882     1.09300
C29         C  0.41786910  0.51960597  0.04027631     1.09300
C30         C  0.98438436  0.28358880  0.12320502     0.80000
N31         N  0.98989999  0.25044595  0.10603843    -0.78300
C32         C  0.99267679  0.21729681  0.12327086     0.82400
N33         N  0.98985729  0.21761884  0.15818497    -0.78300
C34         C  0.98436711  0.25067403  0.17573386     0.82500
N35         N  0.98174040  0.28338391  0.15797111    -0.80000
C36         C  0.99305300  0.21989673  0.37745671     0.80000
N37         N  0.99920651  0.25284878  0.39428663    -0.78300
C38         C  0.00153507  0.28569103  0.37668147     0.82400
N39         N  0.99706312  0.28531032  0.34192570    -0.78300
C40         C  0.99096776  0.25236010  0.32476929     0.82500
N41         N  0.98928317  0.21984613  0.34278513    -0.80000
C42         C  0.22434753  0.01862494  0.12410104     0.80000
N43         N  0.25680754  0.01992127  0.10755680    -0.78300
C44         C  0.28861577  0.01437257  0.12465984     0.82400
N45         N  0.28800199  0.00742892  0.15897940    -0.78300
C46         C  0.25572799  0.00657963  0.17624298     0.82500
N47         N  0.22406485  0.01201417  0.15854868    -0.80000
C48         C  0.22385825  0.47454813  0.37609003     0.80000
N49         N  0.22404576  0.47944274  0.34139380    -0.78300
C50         C  0.25588858  0.48431338  0.32416263     0.82400
N51         N  0.28767129  0.48516776  0.34208511    -0.78300
C52         C  0.28777734  0.48046335  0.37671964     0.82500
N53         N  0.25588080  0.47503282  0.39345709    -0.80000
C54         C  0.28658688  0.98609263  0.23070301    -0.21500
C55         C  0.25523962  0.50023466  0.21406100    -0.09600
C56         C  0.22397433  0.50849756  0.23405623     0.29300
C57         C  0.22435097  0.50283332  0.26965030    -0.21500
C58         C  0.25582691  0.48917616  0.28626415    -0.09600
C59         C  0.28696075  0.98052898  0.26631312     0.29300
F60         F  0.31760810  0.96594778  0.28098802    -0.20100
H61         H  0.31095406  0.97906409  0.21611539     0.17700
H62         H  0.20005203  0.50987739  0.28434497     0.17700
F63         F  0.19320139  0.52297450  0.21956080    -0.20100
C64         C  0.98645941  0.28566764  0.26847832    -0.21500
C65         C  0.98696729  0.25169072  0.28675012    -0.09600
C66         C  0.48434744  0.21744037  0.26816288     0.29300
C67         C  0.48275582  0.21746266  0.23224179    -0.21500
C68         C  0.98342260  0.25141051  0.21393350    -0.09600
C69         C  0.98456634  0.28570209  0.23261444     0.29300
F70         F  0.98475989  0.31948552  0.21650885    -0.20100
H71         H  0.98795591  0.31249556  0.28189895     0.17700
H72         H  0.48142125  0.19065693  0.21876238     0.17700
F73         F  0.48398703  0.18368873  0.28437670    -0.20100
C74         C  0.47259755  0.14874828  0.44657424    -0.21500
C75         C  0.98781318  0.11541858  0.43227326    -0.09600
C76         C  0.00416814  0.11679565  0.39951174     0.29300
C77         C  0.00524912  0.15080891  0.38168779    -0.21500
C78         C  0.99088647  0.18418575  0.39642452    -0.09600
C79         C  0.47438928  0.18290492  0.42901153     0.29300
F80         F  0.45957936  0.21453395  0.44369182    -0.20100
H81         H  0.46020346  0.14865279  0.47188375     0.17700
H82         H  0.01819197  0.15124683  0.35662710     0.17700
F83         F  0.01971144  0.08551326  0.38487579    -0.20100
C84         C  0.03076442  0.35427966  0.44622003    -0.21500
C85         C  0.01689712  0.38887317  0.43396819    -0.09600
C86         C  0.50038708  0.38972149  0.40123483     0.29300
C87         C  0.49663980  0.35629333  0.38207386    -0.21500
C88         C  0.00865375  0.32143800  0.39541196    -0.09600
C89         C  0.02653322  0.32097601  0.42742948     0.29300
F90         F  0.03970682  0.28826764  0.44093632    -0.20100
H91         H  0.04363862  0.35254703  0.47124948     0.17700
H92         H  0.48305922  0.35751064  0.35735668     0.17700
F93         F  0.48701910  0.42253075  0.38809738    -0.20100
C94         C  0.49855261  0.11311899  0.09792248    -0.21500
C95         C  0.01213762  0.11513684  0.06415070    -0.09600
C96         C  0.02054811  0.15075700  0.05080226     0.29300
C97         C  0.01445341  0.18341706  0.07040002    -0.21500
C98         C  0.00017879  0.18165135  0.10389306    -0.09600
C99         C  0.49290640  0.14595698  0.11779676     0.29300
F100        F  0.47906632  0.14273829  0.15001760    -0.20100
H101        H  0.49163200  0.08612419  0.10873355     0.17700
H102        H  0.02063774  0.21032482  0.05900656     0.17700
F103        F  0.03290152  0.15447735  0.01807572    -0.20100
C104        C  0.99209245  0.38750431  0.10175559    -0.21500
C105        C  0.98506679  0.38712022  0.06632299    -0.09600
C106        C  0.47614811  0.35283500  0.05006145     0.29300
C107        C  0.47532376  0.31953898  0.06888626    -0.21500
C108        C  0.98303076  0.31966217  0.10426836    -0.09600
C109        C  0.99086065  0.35422505  0.12069998     0.29300
F110        F  0.99896422  0.35583646  0.15472480    -0.20100
H111        H  0.99913636  0.41353646  0.11471712     0.17700
H112        H  0.46914094  0.29347480  0.05555923     0.17700
F113        F  0.47004532  0.35098906  0.01561075    -0.20100
C114        C  0.35907186  0.95620009  0.44293235    -0.21500
C115        C  0.38583607  0.48323924  0.43691091    -0.09600
C116        C  0.38065852  0.50895876  0.40988797     0.29300
C117        C  0.34911260  0.50740326  0.38948996    -0.21500
C118        C  0.32213741  0.48082348  0.39635097    -0.09600
C119        C  0.32758803  0.95507490  0.42313502     0.29300
F120        F  0.30266214  0.92834894  0.42992718    -0.20100
H121        H  0.36215727  0.93601722  0.46355968     0.17700
H122        H  0.34530624  0.52752679  0.36891826     0.17700
F123        F  0.40596598  0.53524722  0.40306311    -0.20100
C124        C  0.15637205  0.48469333  0.38073725    -0.21500
C125        C  0.18903122  0.47101433  0.39519855    -0.09600
C126        C  0.18821045  0.95618642  0.42877031     0.29300
C127        C  0.15594736  0.95721562  0.44794601    -0.22600
C128        C  0.12385090  0.47321527  0.43430524    -0.09600
C129        C  0.12416557  0.48598437  0.39999219     0.29300
F130        F  0.09373570  0.50105919  0.38530958    -0.20100
H131        H  0.15600530  0.49600670  0.35492348     0.17700
H132        H  0.15658674  0.94697708  0.47413528     0.17700
F133        F  0.21870779  0.94134876  0.44348857    -0.20100
C134        C  0.35171850  0.49032894  0.11052921    -0.21500
C135        C  0.32331684  0.01690469  0.10569921    -0.09600
C136        C  0.32737489  0.04515434  0.08099282     0.29300
C137        C  0.35872371  0.04622758  0.06090131    -0.21500
C138        C  0.38665114  0.51886628  0.06446367    -0.09600
C139        C  0.38307196  0.49094685  0.08978921     0.29300
F140        F  0.40952846  0.46419280  0.09432339    -0.20100
H141        H  0.34904294  0.46832374  0.12948477     0.17700
H142        H  0.36059082  0.06811466  0.04173048     0.17700
F143        F  0.30092766  0.07189396  0.07623519    -0.20100
C144        C  0.15735155  0.03380082  0.05037032    -0.21500
C145        C  0.12414839  0.02448828  0.06571410    -0.09600
C146        C  0.12375054  0.51607463  0.10110643     0.29300
C147        C  0.15612837  0.51558643  0.12017022    -0.21500
C148        C  0.18970217  0.02299194  0.10439540    -0.09600
C149        C  0.18974905  0.03290925  0.06924766     0.29300
F150        F  0.22113304  0.04080614  0.05257310    -0.20100
H151        H  0.15861317  0.04009754  0.02315868     0.17700
H152        H  0.15495471  0.50815274  0.14712400     0.17700
F153        F  0.09222524  0.50741092  0.11719264    -0.20100
O154        O  0.06728857  0.00319238  0.94735228    -0.80400
O155        O  0.42531633  0.45410438  0.97669675    -0.80400
O156        O  0.03417125  0.42019194  0.98570539    -0.80400
O157        O  0.47305035  0.07884087  0.98142064    -0.80300
O158        O  0.49490804  0.44985895  0.95169055    -0.80500
O159        O  0.01154175  0.05426055  0.94526592    -0.80400
O160        O  0.43864561  0.01253402  0.96373363    -0.80400
O161        O  0.09118458  0.46721582  0.98744679    -0.80400
C162        C  0.09189940  0.48045761  0.95705442     1.09300
C163        C  0.41795544  0.48349862  0.95991940     1.09200
C164        C  0.51635242  0.42210883  0.95746921     1.09300
C165        C  0.48979786  0.08073980  0.95317238     1.09200
O166        O  0.03245770  0.08190827  0.51385697    -0.80400
O167        O  0.47475504  0.42438273  0.51692631    -0.80400
O168        O  0.06717439  0.49708452  0.55357961    -0.80400
O169        O  0.42318054  0.04917493  0.52317781    -0.80400
O170        O  0.43980639  0.49079358  0.53589840    -0.80400
O171        O  0.09036538  0.03294790  0.51351479    -0.80400
O172        O  0.49282895  0.05388951  0.54754756    -0.80300
O173        O  0.01183800  0.44643983  0.55490574    -0.80400
Co174      Co  0.04819658  0.04072212  0.98040644     1.51500
Co175      Co  0.46987474  0.47279595  0.49198291     1.51700
Co176      Co  0.04867031  0.46032978  0.02004942     1.51600
Co177      Co  0.46863347  0.03068407  0.50741672     1.51500
O178        O  0.01542281  0.00118399  0.00024204    -1.42300
C179        C  0.01364262  0.08122256  0.54152490     1.09300
C180        C  0.48986029  0.42144108  0.54579683     1.09300
C181        C  0.09155195  0.01913593  0.54372697     1.09300
C182        C  0.41786674  0.51960488  0.54027804     1.09300
C183        C  0.98437888  0.28358815  0.62320435     0.80000
N184        N  0.98989515  0.25044542  0.60603768    -0.78300
C185        C  0.99267287  0.21729631  0.62327004     0.82400
N186        N  0.98985391  0.21761820  0.65818418    -0.78300
C187        C  0.98436323  0.25067321  0.67573320     0.82500
N188        N  0.98173537  0.28338309  0.65797051    -0.80000
C189        C  0.99305543  0.21989498  0.87745617     0.80000
N190        N  0.99920976  0.25284697  0.89428596    -0.78300
C191        C  0.00153844  0.28568911  0.87668066     0.82400
N192        N  0.99706569  0.28530840  0.84192497    -0.78300
C193        C  0.99096959  0.25235825  0.82476867     0.82500
N194        N  0.98928495  0.21984430  0.84278461    -0.80000
C195        C  0.22434487  0.01862549  0.62410100     0.80000
N196        N  0.25680479  0.01992140  0.60755650    -0.78300
C197        C  0.28861305  0.01437134  0.62465915     0.82400
N198        N  0.28799945  0.00742701  0.65897860    -0.78300
C199        C  0.25572565  0.00657804  0.67624262     0.82500
N200        N  0.22406239  0.01201377  0.65854861    -0.80000
C201        C  0.22385782  0.47453889  0.87609008     0.80000
N202        N  0.22404534  0.47943504  0.84139413    -0.78300
C203        C  0.25588779  0.48430866  0.82416342     0.82400
N204        N  0.28767029  0.48516456  0.84208616    -0.78300
C205        C  0.28777648  0.48045868  0.87672056     0.82500
N206        N  0.25588013  0.47502510  0.89345758    -0.80000
C207        C  0.28658821  0.98609830  0.73070353    -0.21500
C208        C  0.25523711  0.50023367  0.71406234    -0.09600
C209        C  0.22397125  0.50849330  0.73405781     0.29300
C210        C  0.22434852  0.50282797  0.76965173    -0.21500
C211        C  0.25582567  0.48917315  0.78626517    -0.09600
C212        C  0.28696326  0.98053515  0.76631379     0.29300
F213        F  0.31761391  0.96596166  0.78098877    -0.20100
H214        H  0.31095709  0.97907570  0.71611632     0.17700
H215        H  0.20004902  0.50986930  0.78434660     0.17700
F216        F  0.19319703  0.52296783  0.71956281    -0.20100
C217        C  0.98646078  0.28566609  0.76847780    -0.21500
C218        C  0.98696798  0.25168910  0.78674952    -0.09600
C219        C  0.48434627  0.21743897  0.76816220     0.29300
C220        C  0.48275303  0.21746156  0.73224114    -0.21500
C221        C  0.98342022  0.25140948  0.71393292    -0.09600
C222        C  0.98456628  0.28570083  0.73261398     0.29300
F223        F  0.98476090  0.31948426  0.71650851    -0.20100
H224        H  0.98795893  0.31249387  0.78189844     0.17700
H225        H  0.48141691  0.19065599  0.71876165     0.17700
F226        F  0.48398538  0.18368729  0.78437591    -0.20100
C227        C  0.47259800  0.14874677  0.94657334    -0.21500
C228        C  0.98781634  0.11541755  0.93227399    -0.09600
C229        C  0.00417370  0.11679484  0.89951350     0.29300
C230        C  0.00525410  0.15080775  0.88168894    -0.21500
C231        C  0.99088881  0.18418415  0.89642418    -0.09600
C232        C  0.47438934  0.18290314  0.92901013     0.29300
F233        F  0.45957686  0.21453179  0.94368885    -0.20100
H234        H  0.46020200  0.14865117  0.97188201     0.17700
H235        H  0.01819876  0.15124589  0.85662909     0.17700
F236        F  0.01972023  0.08551314  0.88487932    -0.20100
C237        C  0.03077042  0.35427834  0.94621795    -0.21500
C238        C  0.01689944  0.38887119  0.93396792    -0.09600
C239        C  0.50038674  0.38971897  0.90123569     0.29300
C240        C  0.49663996  0.35629095  0.88207448    -0.21500
C241        C  0.00865736  0.32143616  0.89541097    -0.09600
C242        C  0.02653999  0.32097472  0.92742692     0.29300
F243        F  0.03971750  0.28826684  0.94093157    -0.20100
H244        H  0.04364711  0.35254615  0.97124628     0.17700
H245        H  0.48305695  0.35750782  0.85735846     0.17700
F246        F  0.48701532  0.42252751  0.88809975    -0.20100
C247        C  0.49854790  0.11311898  0.59792060    -0.21500
C248        C  0.01213492  0.11513696  0.56414952    -0.09600
C249        C  0.02054761  0.15075706  0.55080215     0.29300
C250        C  0.01445260  0.18341698  0.57040007    -0.21500
C251        C  0.00017570  0.18165110  0.60389222    -0.09600
C252        C  0.49290151  0.14595677  0.61779505     0.29300
F253        F  0.47905940  0.14273803  0.65001510    -0.20100
H254        H  0.49162575  0.08612426  0.60873092     0.17700
H255        H  0.02063845  0.21032480  0.55900746     0.17700
F256        F  0.03290354  0.15447754  0.51807647    -0.20100
C257        C  0.99208721  0.38750398  0.60175553    -0.21500
C258        C  0.98506554  0.38711952  0.56632226    -0.09600
C259        C  0.47614899  0.35283412  0.55005998     0.29300
C260        C  0.47532267  0.31953823  0.56888483    -0.21500
C261        C  0.98302574  0.31966167  0.60426770    -0.09600
C262        C  0.99085339  0.35422484  0.62069995     0.29300
F263        F  0.99895281  0.35583678  0.65472562    -0.20100
H264        H  0.99912929  0.41353635  0.61471764     0.17700
H265        H  0.46914176  0.29347391  0.55555716     0.17700
F266        F  0.47005037  0.35098795  0.51560862    -0.20100
C267        C  0.35907707  0.95619606  0.94292931    -0.21500
C268        C  0.38583645  0.48323876  0.93691069    -0.09600
C269        C  0.38065717  0.50895834  0.90988805     0.29300
C270        C  0.34911073  0.50740173  0.88949070    -0.21500
C271        C  0.32213658  0.48082083  0.89635207    -0.09600
C272        C  0.32759338  0.95507087  0.92313170     0.29300
F273        F  0.30266999  0.92834119  0.92991998    -0.20100
H274        H  0.36216447  0.93600976  0.96355360     0.17700
H275        H  0.34530326  0.52752514  0.86891905     0.17700
F276        F  0.40596351  0.53524780  0.90306273    -0.20100
C277        C  0.15637193  0.48468434  0.88073657    -0.21500
C278        C  0.18903059  0.47100386  0.89519779    -0.09600
C279        C  0.18821402  0.95618858  0.92877350     0.29300
C280        C  0.15595093  0.95721719  0.94794921    -0.22600
C281        C  0.12385065  0.47320772  0.93430453    -0.09600
C282        C  0.12416558  0.48597658  0.89999148     0.29300
F283        F  0.09373625  0.50105280  0.88530902    -0.20100
H284        H  0.15600564  0.49599841  0.85492305     0.17700
H285        H  0.15659064  0.94697941  0.97413875     0.17700
F286        F  0.21871189  0.94135269  0.94349224    -0.20100
C287        C  0.35171512  0.49032721  0.61053026    -0.21500
C288        C  0.32331405  0.01690302  0.60569832    -0.09600
C289        C  0.32737435  0.04515627  0.58099578     0.29300
C290        C  0.35872313  0.04622979  0.56090410    -0.21500
C291        C  0.38664842  0.51886472  0.56446515    -0.09600
C292        C  0.38306880  0.49094506  0.58979047     0.29300
F293        F  0.40952511  0.46419084  0.59432471    -0.20100
H294        H  0.34903930  0.46832193  0.62948571     0.17700
H295        H  0.36059203  0.06811999  0.54173645     0.17700
F296        F  0.30092933  0.07189913  0.57624215    -0.20100
C297        C  0.15734902  0.03380518  0.55037040    -0.21500
C298        C  0.12414599  0.02448996  0.56571301    -0.09600
C299        C  0.12374792  0.51607325  0.60110725     0.29300
C300        C  0.15612556  0.51558492  0.62017126    -0.21500
C301        C  0.18969942  0.02299354  0.60439538    -0.09600
C302        C  0.18974629  0.03291377  0.56924829     0.29300
F303        F  0.22113014  0.04081384  0.55257486    -0.20100
H304        H  0.15861079  0.04010398  0.52315921     0.17700
H305        H  0.15495211  0.50814831  0.64712437     0.17700
F306        F  0.09222306  0.50740586  0.61719248    -0.20100
O307        O  0.06729008  0.50320616  0.44735466    -0.80400
O308        O  0.42530821  0.95410261  0.47669855    -0.80400
O309        O  0.03416102  0.92018726  0.48570384    -0.80400
O310        O  0.47304747  0.57884477  0.48142630    -0.80300
O311        O  0.49489875  0.94985588  0.45168910    -0.80500
O312        O  0.01153827  0.55426656  0.44527034    -0.80400
O313        O  0.43864911  0.51253731  0.46373567    -0.80400
O314        O  0.09117708  0.96720614  0.48744341    -0.80400
C315        C  0.09189233  0.98044671  0.45705054     1.09300
C316        C  0.41794733  0.98349556  0.45991964     1.09200
C317        C  0.51634244  0.92210530  0.45746776     1.09300
C318        C  0.48979290  0.58074411  0.45317709     1.09200
O319        O  0.03245853  0.58191322  0.01386353    -0.80400
O320        O  0.47474904  0.92438015  0.01692600    -0.80400
O321        O  0.06717159  0.99707631  0.05357773    -0.80400
O322        O  0.42318594  0.54917680  0.02317976    -0.80400
O323        O  0.43980755  0.99079364  0.03589776    -0.80400
O324        O  0.09036837  0.53295786  0.01351912    -0.80400
O325        O  0.49283235  0.55389006  0.04755320    -0.80300
O326        O  0.01183160  0.94643636  0.05490582    -0.80400
Co327      Co  0.04819436  0.54073194  0.48041044     1.51500
Co328      Co  0.46987205  0.97279297  0.99198198     1.51700
Co329      Co  0.04866231  0.96032400  0.52004687     1.51600
Co330      Co  0.46863878  0.53068627  0.00742066     1.51500
O331        O  0.01542426  0.50118977  0.50024464    -1.42300
C332        C  0.01364424  0.58122479  0.04153191     1.09300
C333        C  0.48985265  0.92143875  0.04579715     1.09300
C334        C  0.09155538  0.51914667  0.04373142     1.09300
C335        C  0.41786868  0.01960528  0.04027776     1.09300
C336        C  0.98436204  0.78358854  0.12320689     0.80000
N337        N  0.98988118  0.75044539  0.10604157    -0.78300
C338        C  0.99265811  0.71729693  0.12327516     0.82400
N339        N  0.98983559  0.71761980  0.15818897    -0.78300
C340        C  0.98434263  0.75067538  0.17573633     0.82500
N341        N  0.98171530  0.78338457  0.15797272    -0.80000
C342        C  0.99303929  0.71989476  0.37745630     0.80000
N343        N  0.99919613  0.75284606  0.39428593    -0.78300
C344        C  0.00152350  0.78568823  0.37668097     0.82400
N345        N  0.99704693  0.78530846  0.34192603    -0.78300
C346        C  0.99094779  0.75235919  0.32476982     0.82500
N347        N  0.98926485  0.71984471  0.34278514    -0.80000
C348        C  0.22434650  0.51865451  0.12410465     0.80000
N349        N  0.25680562  0.51994534  0.10755816    -0.78300
C350        C  0.28861434  0.51439036  0.12465910     0.82400
N351        N  0.28800169  0.50744604  0.15897862    -0.78300
C352        C  0.25572863  0.50660171  0.17624429     0.82500
N353        N  0.22406525  0.51204225  0.15855196    -0.80000
C354        C  0.22385060  0.97452129  0.37608573     0.80000
N355        N  0.22403947  0.97941679  0.34138968    -0.78300
C356        C  0.25588286  0.98428921  0.32416009     0.82400
N357        N  0.28766486  0.98514470  0.34208378    -0.78300
C358        C  0.28776967  0.98044018  0.37671846     0.82500
N359        N  0.25587224  0.97500811  0.39345424    -0.80000
C360        C  0.28659410  0.48612861  0.23070576    -0.21500
C361        C  0.25523782  0.00021374  0.21405954    -0.09600
C362        C  0.22397696  0.00849268  0.23405572     0.29300
C363        C  0.22435194  0.00282730  0.26964970    -0.21500
C364        C  0.25582236  0.98915388  0.28626210    -0.09600
C365        C  0.28696938  0.48056553  0.26631593     0.29300
F366        F  0.31762297  0.46599958  0.28099146    -0.20100
H367        H  0.31096499  0.47911207  0.21611933     0.17700
H368        H  0.20005681  0.00988345  0.28434560     0.17700
F369        F  0.19321114  0.02298751  0.21956120    -0.20100
C370        C  0.98646677  0.78566826  0.26847865    -0.21500
C371        C  0.98694300  0.75169199  0.28675127    -0.09600
C372        C  0.48429012  0.71744436  0.26816519     0.29300
C373        C  0.48269855  0.71746725  0.23224413    -0.21500
C374        C  0.98339779  0.75141330  0.21393536    -0.09600
C375        C  0.98457416  0.78570350  0.23261510     0.29300
F376        F  0.98480399  0.81948526  0.21650851    -0.20100
H377        H  0.98799031  0.81249469  0.28189805     0.17700
H378        H  0.48133759  0.69066333  0.21876494     0.17700
F379        F  0.48389527  0.68369448  0.28438010    -0.20100
C380        C  0.47259024  0.64874967  0.44657732    -0.21500
C381        C  0.98780729  0.61542027  0.43227741    -0.09600
C382        C  0.00415994  0.61679593  0.39951476     0.29300
C383        C  0.00523749  0.65080785  0.38168865    -0.21500
C384        C  0.99087395  0.68418452  0.39642457    -0.09600
C385        C  0.47437880  0.68290503  0.42901250     0.29300
F386        F  0.45956840  0.71453434  0.44369189    -0.20100
H387        H  0.46019792  0.64865511  0.47188762     0.17700
H388        H  0.01817894  0.65124514  0.35662729     0.17700
F389        F  0.01970485  0.58551367  0.38488008    -0.20100
C390        C  0.03075819  0.85427522  0.44621737    -0.21500
C391        C  0.01688862  0.88886832  0.43396680    -0.09600
C392        C  0.50037634  0.88971708  0.40123461     0.29300
C393        C  0.49662835  0.85628939  0.38207374    -0.21500
C394        C  0.00864420  0.82143441  0.39541075    -0.09600
C395        C  0.02652665  0.82097198  0.42742665     0.29300
F396        F  0.03970252  0.78826363  0.44093172    -0.20100
H397        H  0.04363446  0.85254255  0.47124587     0.17700
H398        H  0.48304547  0.85750672  0.35735767     0.17700
F399        F  0.48700627  0.92252615  0.38809856    -0.20100
C400        C  0.49853688  0.61311995  0.09792570    -0.21500
C401        C  0.01213441  0.61513804  0.06415825    -0.09600
C402        C  0.02055460  0.65075797  0.05081491     0.29300
C403        C  0.01445487  0.68341760  0.07041191    -0.21500
C404        C  0.00016607  0.68165170  0.10389938    -0.09600
C405        C  0.49288591  0.64595755  0.11779947     0.29300
F406        F  0.47903298  0.64273915  0.15001542    -0.20100
H407        H  0.49160921  0.58612548  0.10873323     0.17700
H408        H  0.02064644  0.71032537  0.05902216     0.17700
F409        F  0.03292260  0.65447897  0.01809342    -0.20100
C410        C  0.99207391  0.88750353  0.10175679    -0.21500
C411        C  0.98505477  0.88711827  0.06632318    -0.09600
C412        C  0.47613770  0.85283289  0.05006111     0.29300
C413        C  0.47530942  0.81953746  0.06888644    -0.21500
C414        C  0.98301047  0.81966156  0.10426962    -0.09600
C415        C  0.99083771  0.85422498  0.12070173     0.29300
F416        F  0.99893456  0.85583777  0.15472783    -0.20100
H417        H  0.99911592  0.91353600  0.11471878     0.17700
H418        H  0.46912857  0.79347299  0.05555898     0.17700
F419        F  0.47004041  0.85098619  0.01560957    -0.20100
C420        C  0.35909032  0.45619028  0.44291181    -0.21500
C421        C  0.38582698  0.98323397  0.43691315    -0.09600
C422        C  0.38065895  0.00893274  0.40987258     0.29300
C423        C  0.34911315  0.00737126  0.38947457    -0.21500
C424        C  0.32212885  0.98080610  0.39635237    -0.09600
C425        C  0.32760578  0.45507138  0.42311502     0.29300
F426        F  0.30268748  0.42833237  0.42988955    -0.20100
H427        H  0.36218266  0.43599125  0.46352511     0.17700
H428        H  0.34531482  0.02747863  0.36888856     0.17700
F429        F  0.40597690  0.03520451  0.40302914    -0.20100
C430        C  0.15636472  0.98466891  0.38073181    -0.21500
C431        C  0.18902279  0.97098677  0.39519286    -0.09600
C432        C  0.18822047  0.45621627  0.42877692     0.29300
C433        C  0.15595717  0.45724207  0.44795217    -0.22600
C434        C  0.12384289  0.97319405  0.43430009    -0.09600
C435        C  0.12415843  0.98596286  0.39998695     0.29300
F436        F  0.09372992  0.00104112  0.38530471    -0.20100
H437        H  0.15599903  0.99598333  0.35491842     0.17700
H438        H  0.15659748  0.44700451  0.47414176     0.17700
F439        F  0.21871934  0.44138357  0.44349643    -0.20100
C440        C  0.35172244  0.99032015  0.11053064    -0.21500
C441        C  0.32331493  0.51691575  0.10569625    -0.09600
C442        C  0.32737502  0.54516223  0.08098722     0.29300
C443        C  0.35872383  0.54623081  0.06089551    -0.21500
C444        C  0.38665255  0.01886441  0.06446706    -0.09600
C445        C  0.38307566  0.99094260  0.08979086     0.29300
F446        F  0.40953374  0.96418974  0.09432286    -0.20100
H447        H  0.34904838  0.96831269  0.12948423     0.17700
H448        H  0.36059253  0.56811618  0.04172323     0.17700
F449        F  0.30093031  0.57190410  0.07622776    -0.20100
C450        C  0.15734739  0.53383734  0.05037817    -0.21500
C451        C  0.12414703  0.52450871  0.06571890    -0.09600
C452        C  0.12375036  0.01606026  0.10110285     0.29300
C453        C  0.15612854  0.01556661  0.12016615    -0.21500
C454        C  0.18970011  0.52302400  0.10440123    -0.09600
C455        C  0.18974458  0.53295209  0.06925624     0.29300
F456        F  0.22112633  0.54086541  0.05258503    -0.20100
H457        H  0.15860773  0.54014154  0.02316801     0.17700
H458        H  0.15495311  0.00814019  0.14712162     0.17700
F459        F  0.09222268  0.00740910  0.11719104    -0.20100
O460        O  0.06729216  0.50320349  0.94735413    -0.80400
O461        O  0.42531047  0.95410276  0.97669995    -0.80400
O462        O  0.03416336  0.92018665  0.98570544    -0.80400
O463        O  0.47305064  0.57884457  0.98142515    -0.80300
O464        O  0.49490124  0.94985555  0.95169061    -0.80500
O465        O  0.01154173  0.55426705  0.94526900    -0.80400
O466        O  0.43865056  0.51253717  0.96373434    -0.80400
O467        O  0.09117955  0.96720510  0.98744581    -0.80400
C468        C  0.09189497  0.98044579  0.95705299     1.09300
C469        C  0.41794948  0.98349586  0.95992133     1.09200
C470        C  0.51634539  0.92210521  0.95746902     1.09300
C471        C  0.48979624  0.58074449  0.95317611     1.09200
O472        O  0.03245485  0.58191432  0.51386462    -0.80400
O473        O  0.47474710  0.92438059  0.51692493    -0.80400
O474        O  0.06716962  0.99707732  0.55357563    -0.80400
O475        O  0.42318321  0.54917578  0.52318148    -0.80400
O476        O  0.43980513  0.99079347  0.53589622    -0.80400
O477        O  0.09036574  0.53296048  0.51352034    -0.80400
O478        O  0.49282955  0.55389046  0.54755472    -0.80300
O479        O  0.01182994  0.94643740  0.55490417    -0.80400
Co480      Co  0.04819721  0.54073040  0.98040939     1.51500
Co481      Co  0.46986970  0.97279318  0.49198049     1.51700
Co482      Co  0.04866439  0.96032307  0.02004886     1.51600
Co483      Co  0.46863645  0.53068640  0.50742215     1.51500
O484        O  0.01542614  0.50118886  0.00024350    -1.42300
C485        C  0.01364079  0.58122563  0.54153311     1.09300
C486        C  0.48985105  0.92143954  0.54579598     1.09300
C487        C  0.09155303  0.51914849  0.54373238     1.09300
C488        C  0.41786565  0.01960460  0.54027606     1.09300
C489        C  0.98436057  0.78359014  0.62320704     0.80000
N490        N  0.98987831  0.75044679  0.60604175    -0.78300
C491        C  0.99265452  0.71729834  0.62327541     0.82400
N492        N  0.98983258  0.71762140  0.65818926    -0.78300
C493        C  0.98434101  0.75067721  0.67573659     0.82500
N494        N  0.98171443  0.78338643  0.65797292    -0.80000
C495        C  0.99303882  0.71989660  0.87745666     0.80000
N496        N  0.99919771  0.75284763  0.89428607    -0.78300
C497        C  0.00152597  0.78568965  0.87668090     0.82400
N498        N  0.99704830  0.78530996  0.84192609    -0.78300
C499        C  0.99094702  0.75236103  0.82477012     0.82500
N500        N  0.98926315  0.71984671  0.84278559    -0.80000
C501        C  0.22434338  0.51865537  0.62410637     0.80000
N502        N  0.25680241  0.51994536  0.60755959    -0.78300
C503        C  0.28861114  0.51438947  0.62466028     0.82400
N504        N  0.28799858  0.50744508  0.65897975    -0.78300
C505        C  0.25572567  0.50660144  0.67624571     0.82500
N506        N  0.22406222  0.51204290  0.65855366    -0.80000
C507        C  0.22385324  0.97452171  0.87608769     0.80000
N508        N  0.22404149  0.97941666  0.84139152    -0.78300
C509        C  0.25588452  0.98428882  0.82416117     0.82400
N510        N  0.28766685  0.98514456  0.84208446    -0.78300
C511        C  0.28777225  0.98044035  0.87671925     0.82500
N512        N  0.25587519  0.97500850  0.89345562    -0.80000
C513        C  0.28659279  0.48613002  0.73070678    -0.21500
C514        C  0.25523621  0.00021165  0.71405949    -0.09600
C515        C  0.22397348  0.00848281  0.73405555     0.29300
C516        C  0.22434974  0.00281818  0.76964974    -0.21500
C517        C  0.25582311  0.98915286  0.78626275    -0.09600
C518        C  0.28696874  0.48056606  0.76631676     0.29300
F519        F  0.31762364  0.46600266  0.78099192    -0.20100
H520        H  0.31096426  0.47911609  0.71612025     0.17700
H521        H  0.20005289  0.00986840  0.78434524     0.17700
F522        F  0.19320409  0.02296889  0.71956072    -0.20100
C523        C  0.98647017  0.78567003  0.76847870    -0.21500
C524        C  0.98694189  0.75169395  0.78675157    -0.09600
C525        C  0.48428508  0.71744659  0.76816566     0.29300
C526        C  0.48269347  0.71746947  0.73224456    -0.21500
C527        C  0.98339679  0.75141527  0.71393562    -0.09600
C528        C  0.98457781  0.78570529  0.73261515     0.29300
F529        F  0.98481282  0.81948677  0.71650831    -0.20100
H530        H  0.98799733  0.81249629  0.78189788     0.17700
H531        H  0.48132923  0.69066574  0.71876546     0.17700
F532        F  0.48388639  0.68369696  0.78438080    -0.20100
C533        C  0.47259322  0.64875034  0.94657794    -0.21500
C534        C  0.98780994  0.61542119  0.93227709    -0.09600
C535        C  0.00416104  0.61679751  0.89951384     0.29300
C536        C  0.00523729  0.65080968  0.88168797    -0.21500
C537        C  0.99087414  0.68418611  0.89642476    -0.09600
C538        C  0.47438057  0.68290604  0.92901339     0.29300
F539        F  0.45957060  0.71453506  0.94369374    -0.20100
H540        H  0.46020206  0.64865531  0.97188873     0.17700
H541        H  0.01817756  0.65124738  0.85662609     0.17700
F542        F  0.01970561  0.58551561  0.88487823    -0.20100
C543        C  0.03076354  0.85427588  0.94621678    -0.21500
C544        C  0.01689306  0.88886902  0.93396709    -0.09600
C545        C  0.50038105  0.88971835  0.90123478     0.29300
C546        C  0.49663287  0.85629093  0.88207356    -0.21500
C547        C  0.00864855  0.82143569  0.89541023    -0.09600
C548        C  0.02653204  0.82097291  0.92742560     0.29300
F549        F  0.03970863  0.78826440  0.94092979    -0.20100
H550        H  0.04364018  0.85254288  0.97124509     0.17700
H551        H  0.48304968  0.85750863  0.85735766     0.17700
F552        F  0.48701117  0.92252769  0.88809907    -0.20100
C553        C  0.49853248  0.61312123  0.59792651    -0.21500
C554        C  0.01213038  0.61513907  0.56415913    -0.09600
C555        C  0.02055048  0.65075889  0.55081552     0.29300
C556        C  0.01445058  0.68341864  0.57041223    -0.21500
C557        C  0.00016177  0.68165299  0.60389969    -0.09600
C558        C  0.49288136  0.64595901  0.61779999     0.29300
F559        F  0.47902831  0.64274090  0.65001592    -0.20100
H560        H  0.49160476  0.58612686  0.60873420     0.17700
H561        H  0.02064225  0.71032630  0.55902231     0.17700
F562        F  0.03291879  0.65447965  0.51809411    -0.20100
C563        C  0.99207754  0.88750407  0.60175541    -0.21500
C564        C  0.98505347  0.88711936  0.56632262    -0.09600
C565        C  0.47613206  0.85283457  0.55006173     0.29300
C566        C  0.47530395  0.81953932  0.56888735    -0.21500
C567        C  0.98300963  0.81966298  0.60426961    -0.09600
C568        C  0.99084180  0.85422566  0.62070058     0.29300
F569        F  0.99894416  0.85583761  0.65472554    -0.20100
H570        H  0.99912326  0.91353592  0.61471648     0.17700
H571        H  0.46911944  0.79347527  0.55556083     0.17700
F572        F  0.47003022  0.85098813  0.51561090    -0.20100
C573        C  0.35909149  0.45618902  0.94291219    -0.21500
C574        C  0.38582932  0.98323424  0.93691435    -0.09600
C575        C  0.38065833  0.00893752  0.90987774     0.29300
C576        C  0.34911289  0.00737587  0.88947920    -0.21500
C577        C  0.32213162  0.98080619  0.89635280    -0.09600
C578        C  0.32760641  0.45506910  0.92311616     0.29300
F579        F  0.30268919  0.42832921  0.92989132    -0.20100
H580        H  0.36218496  0.43598996  0.96352532     0.17700
H581        H  0.34531222  0.02748671  0.86889636     0.17700
F582        F  0.40597272  0.03521444  0.90303902    -0.20100
C583        C  0.15636739  0.98466893  0.88073446    -0.21500
C584        C  0.18902577  0.97098768  0.89519552    -0.09600
C585        C  0.18821914  0.45620422  0.92877547     0.29300
C586        C  0.15595596  0.45723167  0.94795093    -0.22600
C587        C  0.12384596  0.97319409  0.93430292    -0.09600
C588        C  0.12416120  0.98596256  0.89998969     0.29300
F589        F  0.09373237  0.00104005  0.88530738    -0.20100
H590        H  0.15600130  0.99598278  0.85492084     0.17700
H591        H  0.15659578  0.44699344  0.97414030     0.17700
F592        F  0.21871728  0.44136875  0.94349407    -0.20100
C593        C  0.35171711  0.99031460  0.61052546    -0.21500
C594        C  0.32331176  0.51691430  0.60569733    -0.09600
C595        C  0.32737224  0.54516091  0.58098853     0.29300
C596        C  0.35872118  0.54622938  0.56089700    -0.21500
C597        C  0.38664957  0.01886316  0.56446564    -0.09600
C598        C  0.38307010  0.99093724  0.58978536     0.29300
F599        F  0.40952515  0.96418019  0.59431275    -0.20100
H600        H  0.34904106  0.96830407  0.62947580     0.17700
H601        H  0.36059011  0.56811494  0.54172492     0.17700
F602        F  0.30092785  0.57190316  0.57622928    -0.20100
C603        C  0.15734417  0.53384280  0.55038073    -0.21500
C604        C  0.12414422  0.52451082  0.56572041    -0.09600
C605        C  0.12374788  0.01605974  0.60110138     0.29300
C606        C  0.15612582  0.01556594  0.62016515    -0.21500
C607        C  0.18969698  0.52302568  0.60440316    -0.09600
C608        C  0.18974124  0.53295734  0.56925904     0.29300
F609        F  0.22112273  0.54087408  0.55258887    -0.20100
H610        H  0.15860440  0.54014974  0.52317113     0.17700
H611        H  0.15495031  0.00813745  0.64712012     0.17700
F612        F  0.09222034  0.00740638  0.61718873    -0.20100
O613        O  0.56728627  0.00319383  0.44735010    -0.80400
O614        O  0.92531445  0.45410466  0.47669816    -0.80400
O615        O  0.53417057  0.42019401  0.48570467    -0.80400
O616        O  0.97304712  0.07884106  0.48141922    -0.80300
O617        O  0.99490596  0.44986081  0.45169102    -0.80500
O618        O  0.51153887  0.05426153  0.44526433    -0.80400
O619        O  0.93864344  0.01253375  0.46373164    -0.80400
O620        O  0.59118375  0.46721886  0.48744671    -0.80400
C621        C  0.59189858  0.48046179  0.45705473     1.09300
C622        C  0.91795410  0.48349883  0.45992050     1.09200
C623        C  0.01635089  0.42211098  0.45746905     1.09300
C624        C  0.98979473  0.08074047  0.45317106     1.09200
O625        O  0.53246053  0.08190767  0.01385843    -0.80400
O626        O  0.97475585  0.42438272  0.01692640    -0.80400
O627        O  0.56717613  0.49708369  0.05357919    -0.80400
O628        O  0.92318387  0.04917561  0.02317962    -0.80400
O629        O  0.93980806  0.49079418  0.03589659    -0.80400
O630        O  0.59036740  0.03294674  0.01351664    -0.80400
O631        O  0.99283212  0.05388910  0.04754940    -0.80300
O632        O  0.51183819  0.44644078  0.05490573    -0.80400
Co633      Co  0.54819404  0.04072315  0.48040466     1.51500
Co634      Co  0.96987655  0.47279538  0.99198169     1.51700
Co635      Co  0.54866943  0.46033091  0.52004930     1.51600
Co636      Co  0.96863629  0.03068402  0.00741855     1.51500
O637        O  0.51542041  0.00118468  0.50024022    -1.42300
C638        C  0.51364560  0.08122216  0.04152645     1.09300
C639        C  0.98986079  0.42144169  0.04579715     1.09300
C640        C  0.59155397  0.01913476  0.04372877     1.09300
C641        C  0.91786908  0.51960598  0.04027634     1.09300
C642        C  0.48438440  0.28358880  0.12320500     0.80000
N643        N  0.48990002  0.25044594  0.10603842    -0.78300
C644        C  0.49267682  0.21729680  0.12327084     0.82400
N645        N  0.48985732  0.21761884  0.15818496    -0.78300
C646        C  0.48436716  0.25067404  0.17573384     0.82500
N647        N  0.48174044  0.28338391  0.15797109    -0.80000
C648        C  0.49305294  0.21989675  0.37745670     0.80000
N649        N  0.49920653  0.25284879  0.39428660    -0.78300
C650        C  0.50153506  0.28569103  0.37668144     0.82400
N651        N  0.49706304  0.28531033  0.34192568    -0.78300
C652        C  0.49096763  0.25236011  0.32476929     0.82500
N653        N  0.48928303  0.21984614  0.34278513    -0.80000
C654        C  0.72434750  0.01862495  0.12410102     0.80000
N655        N  0.75680751  0.01992128  0.10755678    -0.78300
C656        C  0.78861574  0.01437257  0.12465982     0.82400
N657        N  0.78800196  0.00742893  0.15897938    -0.78300
C658        C  0.75572795  0.00657964  0.17624296     0.82500
N659        N  0.72406482  0.01201417  0.15854867    -0.80000
C660        C  0.72385825  0.47454812  0.37609003     0.80000
N661        N  0.72404574  0.47944276  0.34139380    -0.78300
C662        C  0.75588855  0.48431337  0.32416262     0.82400
N663        N  0.78767127  0.48516772  0.34208508    -0.78300
C664        C  0.78777735  0.48046331  0.37671961     0.82500
N665        N  0.75588081  0.47503277  0.39345707    -0.80000
C666        C  0.78658686  0.98609265  0.23070300    -0.21500
C667        C  0.75523960  0.50023471  0.21406101    -0.09600
C668        C  0.72397429  0.50849757  0.23405623     0.29300
C669        C  0.72435092  0.50283331  0.26965029    -0.21500
C670        C  0.75582688  0.48917619  0.28626414    -0.09600
C671        C  0.78696075  0.98052905  0.26631312     0.29300
F672        F  0.81760815  0.96594797  0.28098803    -0.20100
H673        H  0.81095404  0.97906412  0.21611538     0.17700
H674        H  0.70005197  0.50987734  0.28434496     0.17700
F675        F  0.69320134  0.52297449  0.21956079    -0.20100
C676        C  0.48645949  0.28566764  0.26847831    -0.21500
C677        C  0.48696720  0.25169072  0.28675011    -0.09600
C678        C  0.98434757  0.21744036  0.26816288     0.29300
C679        C  0.98275586  0.21746265  0.23224181    -0.21500
C680        C  0.48342267  0.25141051  0.21393348    -0.09600
C681        C  0.48456650  0.28570209  0.23261442     0.29300
F682        F  0.48476020  0.31948551  0.21650884    -0.20100
H683        H  0.48795608  0.31249556  0.28189893     0.17700
H684        H  0.98142136  0.19065692  0.21876239     0.17700
F685        F  0.98398730  0.18368871  0.28437670    -0.20100
C686        C  0.97259752  0.14874826  0.44657423    -0.21500
C687        C  0.48781319  0.11541860  0.43227326    -0.09600
C688        C  0.50416813  0.11679566  0.39951174     0.29300
C689        C  0.50524910  0.15080892  0.38168779    -0.21500
C690        C  0.49088645  0.18418576  0.39642452    -0.09600
C691        C  0.97438926  0.18290490  0.42901152     0.29300
F692        F  0.95957933  0.21453392  0.44369182    -0.20100
H693        H  0.96020343  0.14865276  0.47188372     0.17700
H694        H  0.51819193  0.15124684  0.35662709     0.17700
F695        F  0.51971141  0.08551327  0.38487579    -0.20100
C696        C  0.53076441  0.35427965  0.44622001    -0.21500
C697        C  0.51689710  0.38887316  0.43396818    -0.09600
C698        C  0.00038709  0.38972148  0.40123484     0.29300
C699        C  0.99663980  0.35629332  0.38207389    -0.21500
C700        C  0.50865377  0.32143800  0.39541192    -0.09600
C701        C  0.52653321  0.32097601  0.42742945     0.29300
F702        F  0.53970681  0.28826763  0.44093629    -0.20100
H703        H  0.54363861  0.35254701  0.47124945     0.17700
H704        H  0.98305922  0.35751063  0.35735671     0.17700
F705        F  0.98701909  0.42253073  0.38809739    -0.20100
C706        C  0.99855261  0.11311899  0.09792252    -0.21500
C707        C  0.51213762  0.11513686  0.06415066    -0.09600
C708        C  0.52054814  0.15075701  0.05080224     0.29300
C709        C  0.51445350  0.18341706  0.07040002    -0.21500
C710        C  0.50017885  0.18165135  0.10389305    -0.09600
C711        C  0.99290637  0.14595698  0.11779680     0.29300
F712        F  0.97906629  0.14273831  0.15001764    -0.20100
H713        H  0.99163202  0.08612418  0.10873359     0.17700
H714        H  0.52063789  0.21032482  0.05900659     0.17700
F715        F  0.53290152  0.15447738  0.01807568    -0.20100
C716        C  0.49209252  0.38750430  0.10175555    -0.21500
C717        C  0.48506679  0.38712022  0.06632296    -0.09600
C718        C  0.97614814  0.35283500  0.05006147     0.29300
C719        C  0.97532378  0.31953898  0.06888628    -0.21500
C720        C  0.48303080  0.31966216  0.10426833    -0.09600
C721        C  0.49086072  0.35422504  0.12069993     0.29300
F722        F  0.49896430  0.35583646  0.15472476    -0.20100
H723        H  0.49913649  0.41353644  0.11471708     0.17700
H724        H  0.96914101  0.29347479  0.05555923     0.17700
F725        F  0.97004537  0.35098906  0.01561077    -0.20100
C726        C  0.85907188  0.95620008  0.44293232    -0.21500
C727        C  0.88583607  0.48323924  0.43691090    -0.09600
C728        C  0.88065850  0.50895875  0.40988796     0.29300
C729        C  0.84911260  0.50740323  0.38948994    -0.21500
C730        C  0.82213742  0.48082343  0.39635093    -0.09600
C731        C  0.82758806  0.95507489  0.42313496     0.29300
F732        F  0.80266219  0.92834889  0.42992706    -0.20100
H733        H  0.86215727  0.93601721  0.46355965     0.17700
H734        H  0.84530622  0.52752678  0.36891825     0.17700
F735        F  0.90596596  0.53524723  0.40306312    -0.20100
C736        C  0.65637204  0.48469333  0.38073726    -0.21500
C737        C  0.68903122  0.47101434  0.39519855    -0.09600
C738        C  0.68821047  0.95618641  0.42877031     0.29300
C739        C  0.65594738  0.95721561  0.44794603    -0.22600
C740        C  0.62385090  0.47321524  0.43430524    -0.09600
C741        C  0.62416557  0.48598435  0.39999220     0.29300
F742        F  0.59373569  0.50105918  0.38530960    -0.20100
H743        H  0.65600529  0.49600670  0.35492349     0.17700
H744        H  0.65658677  0.94697707  0.47413530     0.17700
F745        F  0.71870782  0.94134874  0.44348856    -0.20100
C746        C  0.85171848  0.49032894  0.11052921    -0.21500
C747        C  0.82331681  0.01690468  0.10569918    -0.09600
C748        C  0.82737486  0.04515433  0.08099279     0.29300
C749        C  0.85872368  0.04622757  0.06090128    -0.21500
C750        C  0.88665111  0.51886628  0.06446368    -0.09600
C751        C  0.88307193  0.49094684  0.08978922     0.29300
F752        F  0.90952844  0.46419280  0.09432339    -0.20100
H753        H  0.84904292  0.46832373  0.12948478     0.17700
H754        H  0.86059079  0.06811464  0.04173044     0.17700
F755        F  0.80092764  0.07189396  0.07623514    -0.20100
C756        C  0.65735155  0.03380080  0.05037028    -0.21500
C757        C  0.62414838  0.02448829  0.06571406    -0.09600
C758        C  0.62375055  0.51607462  0.10110641     0.29300
C759        C  0.65612837  0.51558643  0.12017020    -0.21500
C760        C  0.68970215  0.02299195  0.10439538    -0.09600
C761        C  0.68974904  0.03290923  0.06924763     0.29300
F762        F  0.72113303  0.04080614  0.05257308    -0.20100
H763        H  0.65861318  0.04009750  0.02315865     0.17700
H764        H  0.65495470  0.50815275  0.14712399     0.17700
F765        F  0.59222525  0.50741091  0.11719263    -0.20100
O766        O  0.56728856  0.00319241  0.94735223    -0.80400
O767        O  0.92531633  0.45410437  0.97669678    -0.80400
O768        O  0.53417125  0.42019195  0.98570536    -0.80400
O769        O  0.97305037  0.07884089  0.98142068    -0.80300
O770        O  0.99490804  0.44985895  0.95169059    -0.80500
O771        O  0.51154171  0.05426053  0.94526587    -0.80400
O772        O  0.93864561  0.01253403  0.96373365    -0.80400
O773        O  0.59118458  0.46721583  0.98744677    -0.80400
C774        C  0.59189941  0.48045761  0.95705440     1.09300
C775        C  0.91795541  0.48349862  0.95991945     1.09200
C776        C  0.01635242  0.42210882  0.95746924     1.09300
C777        C  0.98979789  0.08073982  0.95317242     1.09200
O778        O  0.53245768  0.08190826  0.51385697    -0.80400
O779        O  0.97475508  0.42438273  0.51692629    -0.80400
O780        O  0.56717444  0.49708440  0.55357961    -0.80400
O781        O  0.92318055  0.04917495  0.52317782    -0.80400
O782        O  0.93980642  0.49079359  0.53589840    -0.80400
O783        O  0.59036538  0.03294791  0.51351480    -0.80400
O784        O  0.99282898  0.05388952  0.54754758    -0.80300
O785        O  0.51183797  0.44643982  0.55490574    -0.80400
Co786      Co  0.54819656  0.04072214  0.98040638     1.51500
Co787      Co  0.96987475  0.47279596  0.49198291     1.51700
Co788      Co  0.54867031  0.46032979  0.02004938     1.51600
Co789      Co  0.96863349  0.03068407  0.50741674     1.51500
O790        O  0.51542280  0.00118400  0.00024199    -1.42300
C791        C  0.51364258  0.08122256  0.54152489     1.09300
C792        C  0.98986033  0.42144108  0.54579681     1.09300
C793        C  0.59155195  0.01913591  0.54372697     1.09300
C794        C  0.91786676  0.51960489  0.54027805     1.09300
C795        C  0.48437891  0.28358815  0.62320435     0.80000
N796        N  0.48989518  0.25044542  0.60603769    -0.78300
C797        C  0.49267286  0.21729632  0.62327004     0.82400
N798        N  0.48985389  0.21761819  0.65818418    -0.78300
C799        C  0.48436322  0.25067320  0.67573320     0.82500
N800        N  0.48173536  0.28338309  0.65797051    -0.80000
C801        C  0.49305537  0.21989498  0.87745617     0.80000
N802        N  0.49920970  0.25284697  0.89428596    -0.78300
C803        C  0.50153836  0.28568912  0.87668066     0.82400
N804        N  0.49706563  0.28530840  0.84192497    -0.78300
C805        C  0.49096956  0.25235825  0.82476867     0.82500
N806        N  0.48928491  0.21984430  0.84278461    -0.80000
C807        C  0.72434486  0.01862545  0.62410099     0.80000
N808        N  0.75680479  0.01992139  0.60755650    -0.78300
C809        C  0.78861304  0.01437137  0.62465916     0.82400
N810        N  0.78799944  0.00742705  0.65897861    -0.78300
C811        C  0.75572564  0.00657806  0.67624263     0.82500
N812        N  0.72406237  0.01201375  0.65854861    -0.80000
C813        C  0.72385781  0.47453874  0.87609007     0.80000
N814        N  0.72404533  0.47943488  0.84139412    -0.78300
C815        C  0.75588778  0.48430857  0.82416341     0.82400
N816        N  0.78767027  0.48516456  0.84208616    -0.78300
C817        C  0.78777647  0.48045866  0.87672057     0.82500
N818        N  0.75588012  0.47502501  0.89345758    -0.80000
C819        C  0.78658817  0.98609830  0.73070353    -0.21500
C820        C  0.75523712  0.50023372  0.71406236    -0.09600
C821        C  0.72397126  0.50849336  0.73405783     0.29300
C822        C  0.72434852  0.50282803  0.76965175    -0.21500
C823        C  0.75582566  0.48917313  0.78626518    -0.09600
C824        C  0.78696322  0.98053515  0.76631378     0.29300
F825        F  0.81761387  0.96596166  0.78098876    -0.20100
H826        H  0.81095704  0.97907566  0.71611631     0.17700
H827        H  0.70004905  0.50986937  0.78434663     0.17700
F828        F  0.69319703  0.52296788  0.71956283    -0.20100
C829        C  0.48646078  0.28566609  0.76847780    -0.21500
C830        C  0.48696795  0.25168910  0.78674951    -0.09600
C831        C  0.98434635  0.21743897  0.76816220     0.29300
C832        C  0.98275307  0.21746156  0.73224115    -0.21500
C833        C  0.48342021  0.25140948  0.71393292    -0.09600
C834        C  0.48456626  0.28570082  0.73261397     0.29300
F835        F  0.48476091  0.31948426  0.71650850    -0.20100
H836        H  0.48795898  0.31249387  0.78189843     0.17700
H837        H  0.98141698  0.19065598  0.71876165     0.17700
F838        F  0.98398557  0.18368728  0.78437590    -0.20100
C839        C  0.97259798  0.14874677  0.94657335    -0.21500
C840        C  0.48781634  0.11541754  0.93227397    -0.09600
C841        C  0.50417370  0.11679484  0.89951348     0.29300
C842        C  0.50525409  0.15080776  0.88168892    -0.21500
C843        C  0.49088879  0.18418415  0.89642417    -0.09600
C844        C  0.97438932  0.18290315  0.92901013     0.29300
F845        F  0.95957685  0.21453180  0.94368883    -0.20100
H846        H  0.96020197  0.14865118  0.97188201     0.17700
H847        H  0.51819874  0.15124591  0.85662907     0.17700
F848        F  0.51972022  0.08551314  0.88487929    -0.20100
C849        C  0.53077039  0.35427834  0.94621794    -0.21500
C850        C  0.51689943  0.38887119  0.93396790    -0.09600
C851        C  0.00038675  0.38971897  0.90123571     0.29300
C852        C  0.99663998  0.35629095  0.88207450    -0.21500
C853        C  0.50865732  0.32143616  0.89541096    -0.09600
C854        C  0.52653996  0.32097471  0.92742691     0.29300
F855        F  0.53971747  0.28826684  0.94093156    -0.20100
H856        H  0.54364708  0.35254615  0.97124627     0.17700
H857        H  0.98305695  0.35750782  0.85735848     0.17700
F858        F  0.98701532  0.42252751  0.88809977    -0.20100
C859        C  0.99854807  0.11311897  0.59792066    -0.21500
C860        C  0.51213485  0.11513696  0.56414950    -0.09600
C861        C  0.52054759  0.15075706  0.55080214     0.29300
C862        C  0.51445260  0.18341697  0.57040007    -0.21500
C863        C  0.50017564  0.18165110  0.60389220    -0.09600
C864        C  0.99290168  0.14595676  0.61779511     0.29300
F865        F  0.97905971  0.14273800  0.65001520    -0.20100
H866        H  0.99162601  0.08612424  0.60873101     0.17700
H867        H  0.52063850  0.21032479  0.55900748     0.17700
F868        F  0.53290354  0.15447753  0.51807647    -0.20100
C869        C  0.49208722  0.38750398  0.60175553    -0.21500
C870        C  0.48506553  0.38711951  0.56632226    -0.09600
C871        C  0.97614898  0.35283414  0.55005998     0.29300
C872        C  0.97532264  0.31953825  0.56888483    -0.21500
C873        C  0.48302577  0.31966166  0.60426770    -0.09600
C874        C  0.49085342  0.35422484  0.62069995     0.29300
F875        F  0.49895284  0.35583678  0.65472562    -0.20100
H876        H  0.49912930  0.41353635  0.61471764     0.17700
H877        H  0.96914173  0.29347392  0.55555715     0.17700
F878        F  0.97005035  0.35098796  0.51560863    -0.20100
C879        C  0.85907703  0.95619610  0.94292937    -0.21500
C880        C  0.88583642  0.48323875  0.93691073    -0.09600
C881        C  0.88065714  0.50895833  0.90988808     0.29300
C882        C  0.84911072  0.50740171  0.88949072    -0.21500
C883        C  0.82213657  0.48082081  0.89635207    -0.09600
C884        C  0.82759334  0.95507089  0.92313174     0.29300
F885        F  0.80266998  0.92834118  0.92992001    -0.20100
H886        H  0.86216442  0.93600983  0.96355368     0.17700
H887        H  0.84530325  0.52752513  0.86891908     0.17700
F888        F  0.90596349  0.53524778  0.90306276    -0.20100
C889        C  0.65637191  0.48468409  0.88073652    -0.21500
C890        C  0.68903058  0.47100368  0.89519777    -0.09600
C891        C  0.68821400  0.95618859  0.92877348     0.29300
C892        C  0.65595091  0.95721722  0.94794918    -0.22600
C893        C  0.62385063  0.47320765  0.93430451    -0.09600
C894        C  0.62416558  0.48597644  0.89999144     0.29300
F895        F  0.59373628  0.50105272  0.88530898    -0.20100
H896        H  0.65600562  0.49599809  0.85492297     0.17700
H897        H  0.65659060  0.94697946  0.97413873     0.17700
F898        F  0.71871186  0.94135270  0.94349223    -0.20100
C899        C  0.85171515  0.49032719  0.61053025    -0.21500
C900        C  0.82331404  0.01690307  0.60569833    -0.09600
C901        C  0.82737437  0.04515635  0.58099584     0.29300
C902        C  0.85872318  0.04622991  0.56090419    -0.21500
C903        C  0.88664845  0.51886473  0.56446517    -0.09600
C904        C  0.88306885  0.49094508  0.58979049     0.29300
F905        F  0.90952519  0.46419089  0.59432475    -0.20100
H906        H  0.84903934  0.46832190  0.62948570     0.17700
H907        H  0.86059212  0.06812014  0.54173659     0.17700
F908        F  0.80092931  0.07189918  0.57624215    -0.20100
C909        C  0.65734902  0.03380515  0.55037040    -0.21500
C910        C  0.62414599  0.02448990  0.56571301    -0.09600
C911        C  0.62374794  0.51607314  0.60110726     0.29300
C912        C  0.65612559  0.51558478  0.62017127    -0.21500
C913        C  0.68969941  0.02299347  0.60439537    -0.09600
C914        C  0.68974629  0.03291371  0.56924829     0.29300
F915        F  0.72113013  0.04081383  0.55257487    -0.20100
H916        H  0.65861078  0.04010401  0.52315922     0.17700
H917        H  0.65495214  0.50814814  0.64712435     0.17700
F918        F  0.59222308  0.50740579  0.61719249    -0.20100
O919        O  0.56729012  0.50320618  0.44735470    -0.80400
O920        O  0.92530822  0.95410260  0.47669855    -0.80400
O921        O  0.53416102  0.92018726  0.48570385    -0.80400
O922        O  0.97304747  0.57884478  0.48142629    -0.80300
O923        O  0.99489875  0.94985589  0.45168910    -0.80500
O924        O  0.51153830  0.55426656  0.44527036    -0.80400
O925        O  0.93864909  0.51253732  0.46373568    -0.80400
O926        O  0.59117708  0.96720613  0.48744344    -0.80400
C927        C  0.59189234  0.98044670  0.45705057     1.09300
C928        C  0.91794734  0.98349554  0.45991965     1.09200
C929        C  0.01634243  0.92210530  0.45746776     1.09300
C930        C  0.98979289  0.58074412  0.45317708     1.09200
O931        O  0.53245852  0.58191325  0.01386350    -0.80400
O932        O  0.97474904  0.92438015  0.01692599    -0.80400
O933        O  0.56717158  0.99707634  0.05357769    -0.80400
O934        O  0.92318595  0.54917683  0.02317984    -0.80400
O935        O  0.93980754  0.99079363  0.03589775    -0.80400
O936        O  0.59036839  0.53295787  0.01351911    -0.80400
O937        O  0.99283236  0.55389005  0.04755324    -0.80300
O938        O  0.51183161  0.94643637  0.05490580    -0.80400
Co939      Co  0.54819437  0.54073194  0.48041048     1.51500
Co940      Co  0.96987206  0.97279297  0.99198198     1.51700
Co941      Co  0.54866230  0.96032400  0.52004688     1.51600
Co942      Co  0.96863876  0.53068629  0.00742072     1.51500
O943        O  0.51542426  0.50118976  0.50024466    -1.42300
C944        C  0.51364422  0.58122480  0.04153187     1.09300
C945        C  0.98985264  0.92143875  0.04579715     1.09300
C946        C  0.59155539  0.51914667  0.04373141     1.09300
C947        C  0.91786867  0.01960528  0.04027775     1.09300
C948        C  0.48436206  0.78358854  0.12320689     0.80000
N949        N  0.48988119  0.75044540  0.10604157    -0.78300
C950        C  0.49265813  0.71729693  0.12327516     0.82400
N951        N  0.48983564  0.71761981  0.15818896    -0.78300
C952        C  0.48434269  0.75067539  0.17573633     0.82500
N953        N  0.48171535  0.78338458  0.15797273    -0.80000
C954        C  0.49303937  0.71989475  0.37745630     0.80000
N955        N  0.49919623  0.75284605  0.39428592    -0.78300
C956        C  0.50152358  0.78568823  0.37668097     0.82400
N957        N  0.49704695  0.78530846  0.34192603    -0.78300
C958        C  0.49094778  0.75235919  0.32476982     0.82500
N959        N  0.48926488  0.71984470  0.34278514    -0.80000
C960        C  0.72434649  0.51865451  0.12410465     0.80000
N961        N  0.75680562  0.51994534  0.10755816    -0.78300
C962        C  0.78861433  0.51439036  0.12465910     0.82400
N963        N  0.78800168  0.50744605  0.15897863    -0.78300
C964        C  0.75572861  0.50660173  0.17624429     0.82500
N965        N  0.72406523  0.51204226  0.15855195    -0.80000
C966        C  0.72385062  0.97452130  0.37608574     0.80000
N967        N  0.72403947  0.97941680  0.34138968    -0.78300
C968        C  0.75588286  0.98428922  0.32416008     0.82400
N969        N  0.78766487  0.98514473  0.34208376    -0.78300
C970        C  0.78776969  0.98044022  0.37671844     0.82500
N971        N  0.75587227  0.97500813  0.39345423    -0.80000
C972        C  0.78659410  0.48612874  0.23070578    -0.21500
C973        C  0.75523779  0.00021373  0.21405953    -0.09600
C974        C  0.72397694  0.00849267  0.23405572     0.29300
C975        C  0.72435192  0.00282729  0.26964970    -0.21500
C976        C  0.75582235  0.98915390  0.28626209    -0.09600
C977        C  0.78696938  0.48056565  0.26631593     0.29300
F978        F  0.81762301  0.46599979  0.28099148    -0.20100
H979        H  0.81096503  0.47911227  0.21611936     0.17700
H980        H  0.70005679  0.00988343  0.28434560     0.17700
F981        F  0.69321111  0.02298751  0.21956120    -0.20100
C982        C  0.48646693  0.78566825  0.26847865    -0.21500
C983        C  0.48694302  0.75169200  0.28675128    -0.09600
C984        C  0.98429019  0.71744435  0.26816518     0.29300
C985        C  0.98269855  0.71746724  0.23224413    -0.21500
C986        C  0.48339785  0.75141331  0.21393536    -0.09600
C987        C  0.48457430  0.78570350  0.23261510     0.29300
F988        F  0.48480406  0.81948526  0.21650851    -0.20100
H989        H  0.48799055  0.81249468  0.28189804     0.17700
H990        H  0.98133764  0.69066332  0.21876494     0.17700
F991        F  0.98389555  0.68369446  0.28438009    -0.20100
C992        C  0.97259019  0.64874966  0.44657733    -0.21500
C993        C  0.48780729  0.61542026  0.43227741    -0.09600
C994        C  0.50415993  0.61679590  0.39951475     0.29300
C995        C  0.50523749  0.65080782  0.38168863    -0.21500
C996        C  0.49087401  0.68418451  0.39642456    -0.09600
C997        C  0.97437871  0.68290501  0.42901248     0.29300
F998        F  0.95956820  0.71453429  0.44369183    -0.20100
H999        H  0.96019785  0.64865508  0.47188761     0.17700
H1000       H  0.51817892  0.65124510  0.35662725     0.17700
F1001       F  0.51970484  0.58551364  0.38488007    -0.20100
C1002       C  0.53075823  0.85427523  0.44621737    -0.21500
C1003       C  0.51688867  0.88886833  0.43396679    -0.09600
C1004       C  0.00037629  0.88971708  0.40123462     0.29300
C1005       C  0.99662828  0.85628939  0.38207374    -0.21500
C1006       C  0.50864428  0.82143440  0.39541073    -0.09600
C1007       C  0.52652670  0.82097198  0.42742665     0.29300
F1008       F  0.53970256  0.78826363  0.44093174    -0.20100
H1009       H  0.54363447  0.85254255  0.47124587     0.17700
H1010       H  0.98304541  0.85750673  0.35735768     0.17700
F1011       F  0.98700621  0.92252615  0.38809857    -0.20100
C1012       C  0.99853687  0.61311996  0.09792572    -0.21500
C1013       C  0.51213439  0.61513805  0.06415822    -0.09600
C1014       C  0.52055452  0.65075798  0.05081487     0.29300
C1015       C  0.51445484  0.68341760  0.07041189    -0.21500
C1016       C  0.50016608  0.68165170  0.10389937    -0.09600
C1017       C  0.99288590  0.64595756  0.11779948     0.29300
F1018       F  0.97903296  0.64273913  0.15001542    -0.20100
H1019       H  0.99160919  0.58612549  0.10873325     0.17700
H1020       H  0.52064639  0.71032537  0.05902214     0.17700
F1021       F  0.53292239  0.65447900  0.01809333    -0.20100
C1022       C  0.49207394  0.88750353  0.10175679    -0.21500
C1023       C  0.48505479  0.88711828  0.06632318    -0.09600
C1024       C  0.97613768  0.85283289  0.05006111     0.29300
C1025       C  0.97530940  0.81953746  0.06888644    -0.21500
C1026       C  0.48301049  0.81966156  0.10426962    -0.09600
C1027       C  0.49083773  0.85422498  0.12070173     0.29300
F1028       F  0.49893458  0.85583777  0.15472783    -0.20100
H1029       H  0.49911595  0.91353601  0.11471878     0.17700
H1030       H  0.96912854  0.79347299  0.05555898     0.17700
F1031       F  0.97004039  0.85098620  0.01560957    -0.20100
C1032       C  0.85909033  0.45619025  0.44291178    -0.21500
C1033       C  0.88582700  0.98323396  0.43691314    -0.09600
C1034       C  0.88065899  0.00893274  0.40987257     0.29300
C1035       C  0.84911319  0.00737128  0.38947455    -0.21500
C1036       C  0.82212888  0.98080612  0.39635234    -0.09600
C1037       C  0.82760579  0.45507133  0.42311498     0.29300
F1038       F  0.80268748  0.42833234  0.42988952    -0.20100
H1039       H  0.86218267  0.43599123  0.46352508     0.17700
H1040       H  0.84531488  0.02747865  0.36888854     0.17700
F1041       F  0.90597695  0.03520451  0.40302916    -0.20100
C1042       C  0.65636472  0.98466893  0.38073185    -0.21500
C1043       C  0.68902280  0.97098677  0.39519287    -0.09600
C1044       C  0.68822048  0.45621626  0.42877692     0.29300
C1045       C  0.65595718  0.45724205  0.44795217    -0.22600
C1046       C  0.62384291  0.97319405  0.43430012    -0.09600
C1047       C  0.62415844  0.98596289  0.39998699     0.29300
F1048       F  0.59372992  0.00104117  0.38530477    -0.20100
H1049       H  0.65599902  0.99598335  0.35491845     0.17700
H1050       H  0.65659749  0.44700448  0.47414175     0.17700
F1051       F  0.71871935  0.44138357  0.44349642    -0.20100
C1052       C  0.85172242  0.99032016  0.11053063    -0.21500
C1053       C  0.82331491  0.51691575  0.10569625    -0.09600
C1054       C  0.82737499  0.54516223  0.08098722     0.29300
C1055       C  0.85872380  0.54623081  0.06089552    -0.21500
C1056       C  0.88665253  0.01886440  0.06446704    -0.09600
C1057       C  0.88307564  0.99094260  0.08979085     0.29300
F1058       F  0.90953372  0.96418974  0.09432286    -0.20100
H1059       H  0.84904836  0.96831271  0.12948423     0.17700
H1060       H  0.86059250  0.56811617  0.04172323     0.17700
F1061       F  0.80093029  0.57190410  0.07622776    -0.20100
C1062       C  0.65734740  0.53383733  0.05037815    -0.21500
C1063       C  0.62414704  0.52450870  0.06571889    -0.09600
C1064       C  0.62375034  0.01606027  0.10110281     0.29300
C1065       C  0.65612852  0.01556664  0.12016612    -0.21500
C1066       C  0.68970011  0.52302400  0.10440122    -0.09600
C1067       C  0.68974459  0.53295209  0.06925623     0.29300
F1068       F  0.72112635  0.54086542  0.05258503    -0.20100
H1069       H  0.65860774  0.54014153  0.02316799     0.17700
H1070       H  0.65495308  0.00814024  0.14712159     0.17700
F1071       F  0.59222266  0.00740912  0.11719099    -0.20100
O1072       O  0.56729219  0.50320352  0.94735411    -0.80400
O1073       O  0.92531049  0.95410275  0.97669993    -0.80400
O1074       O  0.53416335  0.92018666  0.98570543    -0.80400
O1075       O  0.97305065  0.57884460  0.98142521    -0.80300
O1076       O  0.99490128  0.94985557  0.95169060    -0.80500
O1077       O  0.51154177  0.55426705  0.94526896    -0.80400
O1078       O  0.93865050  0.51253719  0.96373441    -0.80400
O1079       O  0.59117954  0.96720512  0.98744576    -0.80400
C1080       C  0.59189495  0.98044581  0.95705294     1.09300
C1081       C  0.91794947  0.98349586  0.95992134     1.09200
C1082       C  0.01634541  0.92210522  0.95746902     1.09300
C1083       C  0.98979622  0.58074451  0.95317616     1.09200
O1084       O  0.53245484  0.58191432  0.51386464    -0.80400
O1085       O  0.97474710  0.92438058  0.51692493    -0.80400
O1086       O  0.56716960  0.99707733  0.55357563    -0.80400
O1087       O  0.92318323  0.54917579  0.52318149    -0.80400
O1088       O  0.93980511  0.99079349  0.53589622    -0.80400
O1089       O  0.59036576  0.53296045  0.51352038    -0.80400
O1090       O  0.99282956  0.55389047  0.54755470    -0.80300
O1091       O  0.51182992  0.94643742  0.55490417    -0.80400
Co1092     Co  0.54819724  0.54073042  0.98040937     1.51500
Co1093     Co  0.96986970  0.97279318  0.49198049     1.51700
Co1094     Co  0.54866439  0.96032309  0.02004883     1.51600
Co1095     Co  0.96863645  0.53068641  0.50742215     1.51500
O1096       O  0.51542616  0.50118887  0.00024346    -1.42300
C1097       C  0.51364078  0.58122562  0.54153313     1.09300
C1098       C  0.98985105  0.92143954  0.54579598     1.09300
C1099       C  0.59155306  0.51914840  0.54373239     1.09300
C1100       C  0.91786566  0.01960464  0.54027608     1.09300
C1101       C  0.48436058  0.78359013  0.62320704     0.80000
N1102       N  0.48987832  0.75044679  0.60604175    -0.78300
C1103       C  0.49265453  0.71729833  0.62327542     0.82400
N1104       N  0.48983260  0.71762140  0.65818927    -0.78300
C1105       C  0.48434104  0.75067721  0.67573659     0.82500
N1106       N  0.48171445  0.78338643  0.65797292    -0.80000
C1107       C  0.49303883  0.71989659  0.87745666     0.80000
N1108       N  0.49919771  0.75284763  0.89428607    -0.78300
C1109       C  0.50152598  0.78568965  0.87668090     0.82400
N1110       N  0.49704830  0.78530996  0.84192609    -0.78300
C1111       C  0.49094701  0.75236103  0.82477013     0.82500
N1112       N  0.48926317  0.71984671  0.84278559    -0.80000
C1113       C  0.72434340  0.51865535  0.62410638     0.80000
N1114       N  0.75680242  0.51994534  0.60755961    -0.78300
C1115       C  0.78861116  0.51438945  0.62466028     0.82400
N1116       N  0.78799860  0.50744508  0.65897976    -0.78300
C1117       C  0.75572568  0.50660146  0.67624572     0.82500
N1118       N  0.72406224  0.51204290  0.65855368    -0.80000
C1119       C  0.72385323  0.97452171  0.87608768     0.80000
N1120       N  0.72404148  0.97941666  0.84139151    -0.78300
C1121       C  0.75588451  0.98428883  0.82416117     0.82400
N1122       N  0.78766685  0.98514456  0.84208446    -0.78300
C1123       C  0.78777224  0.98044033  0.87671925     0.82500
N1124       N  0.75587518  0.97500849  0.89345562    -0.80000
C1125       C  0.78659278  0.48613002  0.73070679    -0.21500
C1126       C  0.75523619  0.00021171  0.71405950    -0.09600
C1127       C  0.72397348  0.00848293  0.73405556     0.29300
C1128       C  0.72434973  0.00281827  0.76964975    -0.21500
C1129       C  0.75582309  0.98915289  0.78626275    -0.09600
C1130       C  0.78696871  0.48056600  0.76631676     0.29300
F1131       F  0.81762354  0.46600246  0.78099190    -0.20100
H1132       H  0.81096423  0.47911603  0.71612025     0.17700
H1133       H  0.70005290  0.00986853  0.78434527     0.17700
F1134       F  0.69320415  0.02296915  0.71956075    -0.20100
C1135       C  0.48646997  0.78567004  0.76847871    -0.21500
C1136       C  0.48694186  0.75169395  0.78675158    -0.09600
C1137       C  0.98428493  0.71744660  0.76816566     0.29300
C1138       C  0.98269331  0.71746948  0.73224456    -0.21500
C1139       C  0.48339679  0.75141527  0.71393562    -0.09600
C1140       C  0.48457765  0.78570530  0.73261516     0.29300
F1141       F  0.48481254  0.81948678  0.71650832    -0.20100
H1142       H  0.48799699  0.81249631  0.78189790     0.17700
H1143       H  0.98132892  0.69066577  0.71876546     0.17700
F1144       F  0.98388611  0.68369698  0.78438081    -0.20100
C1145       C  0.97259321  0.64875038  0.94657796    -0.21500
C1146       C  0.48780995  0.61542117  0.93227704    -0.09600
C1147       C  0.50416105  0.61679749  0.89951380     0.29300
C1148       C  0.50523730  0.65080967  0.88168795    -0.21500
C1149       C  0.49087416  0.68418610  0.89642476    -0.09600
C1150       C  0.97438056  0.68290606  0.92901340     0.29300
F1151       F  0.95957062  0.71453509  0.94369372    -0.20100
H1152       H  0.96020204  0.64865537  0.97188876     0.17700
H1153       H  0.51817756  0.65124738  0.85662607     0.17700
F1154       F  0.51970561  0.58551559  0.88487819    -0.20100
C1155       C  0.53076352  0.85427588  0.94621679    -0.21500
C1156       C  0.51689305  0.88886901  0.93396709    -0.09600
C1157       C  0.00038105  0.88971835  0.90123478     0.29300
C1158       C  0.99663287  0.85629093  0.88207356    -0.21500
C1159       C  0.50864854  0.82143568  0.89541023    -0.09600
C1160       C  0.52653202  0.82097290  0.92742561     0.29300
F1161       F  0.53970861  0.78826440  0.94092980    -0.20100
H1162       H  0.54364016  0.85254288  0.97124510     0.17700
H1163       H  0.98304967  0.85750863  0.85735767     0.17700
F1164       F  0.98701116  0.92252768  0.88809908    -0.20100
C1165       C  0.99853251  0.61312123  0.59792650    -0.21500
C1166       C  0.51213037  0.61513906  0.56415915    -0.09600
C1167       C  0.52055046  0.65075889  0.55081553     0.29300
C1168       C  0.51445057  0.68341863  0.57041224    -0.21500
C1169       C  0.50016176  0.68165299  0.60389970    -0.09600
C1170       C  0.99288142  0.64595901  0.61780000     0.29300
F1171       F  0.97902849  0.64274089  0.65001598    -0.20100
H1172       H  0.99160481  0.58612686  0.60873419     0.17700
H1173       H  0.52064225  0.71032630  0.55902232     0.17700
F1174       F  0.53291876  0.65447965  0.51809412    -0.20100
C1175       C  0.49207754  0.88750407  0.60175540    -0.21500
C1176       C  0.48505349  0.88711935  0.56632261    -0.09600
C1177       C  0.97613203  0.85283457  0.55006174     0.29300
C1178       C  0.97530391  0.81953932  0.56888736    -0.21500
C1179       C  0.48300964  0.81966298  0.60426960    -0.09600
C1180       C  0.49084176  0.85422566  0.62070059     0.29300
F1181       F  0.49894398  0.85583764  0.65472558    -0.20100
H1182       H  0.49912324  0.91353592  0.61471648     0.17700
H1183       H  0.96911940  0.79347528  0.55556085     0.17700
F1184       F  0.97003020  0.85098813  0.51561091    -0.20100
C1185       C  0.85909148  0.45618900  0.94291220    -0.21500
C1186       C  0.88582930  0.98323426  0.93691438    -0.09600
C1187       C  0.88065831  0.00893751  0.90987776     0.29300
C1188       C  0.84911288  0.00737585  0.88947922    -0.21500
C1189       C  0.82213160  0.98080618  0.89635282    -0.09600
C1190       C  0.82760640  0.45506906  0.92311616     0.29300
F1191       F  0.80268919  0.42832917  0.92989131    -0.20100
H1192       H  0.86218496  0.43598992  0.96352532     0.17700
H1193       H  0.84531221  0.02748668  0.86889637     0.17700
F1194       F  0.90597270  0.03521442  0.90303903    -0.20100
C1195       C  0.65636738  0.98466888  0.88073440    -0.21500
C1196       C  0.68902576  0.97098768  0.89519550    -0.09600
C1197       C  0.68821913  0.45620418  0.92877550     0.29300
C1198       C  0.65595595  0.45723165  0.94795095    -0.22600
C1199       C  0.62384593  0.97319408  0.93430286    -0.09600
C1200       C  0.62416116  0.98596247  0.89998961     0.29300
F1201       F  0.59373231  0.00103981  0.88530723    -0.20100
H1202       H  0.65600130  0.99598267  0.85492078     0.17700
H1203       H  0.65659577  0.44699352  0.97414036     0.17700
F1204       F  0.71871729  0.44136882  0.94349417    -0.20100
C1205       C  0.85171709  0.99031464  0.61052546    -0.21500
C1206       C  0.82331178  0.51691426  0.60569732    -0.09600
C1207       C  0.82737226  0.54516088  0.58098853     0.29300
C1208       C  0.85872121  0.54622937  0.56089701    -0.21500
C1209       C  0.88664958  0.01886323  0.56446569    -0.09600
C1210       C  0.88307007  0.99093728  0.58978537     0.29300
F1211       F  0.90952510  0.96418019  0.59431273    -0.20100
H1212       H  0.84904103  0.96830409  0.62947578     0.17700
H1213       H  0.86059013  0.56811494  0.54172494     0.17700
F1214       F  0.80092787  0.57190313  0.57622927    -0.20100
C1215       C  0.65734418  0.53384276  0.55038075    -0.21500
C1216       C  0.62414424  0.52451073  0.56572043    -0.09600
C1217       C  0.62374788  0.01605966  0.60110137     0.29300
C1218       C  0.65612583  0.01556584  0.62016514    -0.21500
C1219       C  0.68969701  0.52302561  0.60440317    -0.09600
C1220       C  0.68974125  0.53295731  0.56925907     0.29300
F1221       F  0.72112274  0.54087409  0.55258893    -0.20100
H1222       H  0.65860440  0.54014975  0.52317117     0.17700
H1223       H  0.65495032  0.00813733  0.64712009     0.17700
F1224       F  0.59222033  0.00740634  0.61718872    -0.20100
loop_ 
_geom_bond_atom_site_label_1 
_geom_bond_atom_site_label_2 
_geom_bond_distance 
_geom_bond_site_symmetry_2 
_ccdc_geom_bond_type 
O1          Co21   1.960       .  S
O1          C315   1.260   1_545  A
O2         Co175   1.873       .  S
O2           C10   1.259       .  A
O3          Co23   2.021       .  S
O3          C623   1.279       .  A
O4         Co177   2.000       .  S
O4           C12   1.261       .  A
O5         Co175   1.976       .  S
O5           C11   1.270       .  A
O6          Co21   1.974       .  S
O6          C624   1.257   1_455  A
O7         Co177   2.126       .  S
O7          C316   1.299   1_545  A
O8          Co23   2.030       .  S
O8            C9   1.275       .  A
C9          O307   1.260       .  A
C9          C128   1.486       .  S
C10         O313   1.299       .  A
C10         C115   1.481       .  S
C11         O615   1.279       .  A
C11         C697   1.484       .  S
C12         O618   1.257       .  A
C12         C687   1.480       .  S
O13        Co174   2.022   1_554  S
O13          C26   1.278       .  A
O14         Co22   1.983   1_554  S
O14          C27   1.256       .  A
O15        Co176   1.965       .  S
O15         C334   1.262       .  A
O16         Co24   1.882       .  S
O16         C335   1.264       .  A
O17         Co22   2.119   1_554  S
O17          C29   1.299       .  A
O18        Co174   2.030   1_554  S
O18          C28   1.276       .  A
O19         Co24   1.976       .  S
O19         C638   1.269       .  A
O20        Co176   1.985       .  S
O20         C639   1.259   1_455  A
Co21        O166   2.022       .  S
Co21        O171   2.030       .  S
Co21         O25   2.023       .  S
Co22        O155   1.873       .  S
Co22        O158   1.976       .  S
Co22       O1096   1.995   1_556  S
Co23        O168   1.965       .  S
Co23        O173   1.985       .  S
Co23        O331   2.033       .  S
Co24        O157   2.000   1_554  S
Co24        O160   2.126   1_554  S
Co24        O790   2.012       .  S
O25       Co1093   1.995   1_445  S
O25        Co329   2.033   1_545  S
O25        Co789   2.012   1_455  S
C26         O631   1.269   1_455  A
C26          C95   1.483       .  S
C27         O632   1.259       .  A
C27         C717   1.474       .  S
C28         O321   1.262   1_545  A
C28         C145   1.486       .  S
C29         O322   1.264       .  A
C29         C138   1.483       .  S
C30         C108   1.481       .  S
C30          N31   1.358       .  A
C30          N35   1.354       .  A
N31          C32   1.360       .  A
C32          C98   1.486   1_655  S
C32          N33   1.360       .  A
N33          C34   1.362       .  A
C34          C68   1.484       .  S
C34          N35   1.356       .  A
C36          C78   1.474       .  S
C36          N37   1.357       .  A
C36          N41   1.354       .  A
N37          C38   1.359   1_655  A
C38          C88   1.484       .  S
C38          N39   1.360   1_455  A
N39          C40   1.362       .  A
C40          C65   1.484       .  S
C40          N41   1.356       .  A
C42         C148   1.492       .  S
C42          N43   1.356       .  A
C42          N47   1.360       .  A
N43          C44   1.357       .  A
C44         C135   1.477       .  S
C44          N45   1.358       .  A
N45          C46   1.363       .  A
C46         C361   1.488       .  S
C46          N47   1.363       .  A
C48         C125   1.487       .  S
C48          N49   1.360       .  A
C48          N53   1.357       .  A
N49          C50   1.362       .  A
C50          C58   1.484       .  S
C50          N51   1.361       .  A
N51          C52   1.357       .  A
C52         C118   1.476       .  S
C52          N53   1.358       .  A
C54          C59   1.399       .  A
C54         C361   1.407   1_565  A
C54          H61   1.083       .  S
C55         C352   1.488       .  S
C55          C56   1.411       .  A
C55         C360   1.407       .  A
C56          C57   1.399       .  A
C56          F63   1.357       .  S
C57          C58   1.405       .  A
C57          H62   1.083       .  S
C58         C365   1.408       .  A
C59         C364   1.408       .  A
C59          F60   1.358       .  S
C64          C65   1.403       .  A
C64          C69   1.395       .  A
C64          H71   1.083       .  S
C65         C678   1.412       .  A
C66          C67   1.397       .  A
C66         C677   1.412       .  A
C66          F73   1.357       .  S
C67         C680   1.404       .  A
C67          H72   1.083       .  S
C68          C69   1.412       .  A
C68         C679   1.404       .  A
C69          F70   1.356       .  S
C74          C79   1.398       .  A
C74         C687   1.407       .  A
C74          H81   1.083       .  S
C75         C624   1.480       .  S
C75          C76   1.409   1_655  A
C75         C686   1.407       .  A
C76          C77   1.397       .  A
C76          F83   1.358       .  S
C77          C78   1.403   1_455  A
C77          H82   1.083       .  S
C78         C691   1.405       .  A
C79         C690   1.405       .  A
C79          F80   1.358       .  S
C84          C85   1.406       .  A
C84          C89   1.394       .  A
C84          H91   1.083       .  S
C85         C623   1.484       .  S
C85         C698   1.409       .  A
C86          C87   1.403       .  A
C86         C697   1.409       .  A
C86          F93   1.357       .  S
C87         C700   1.407       .  A
C87          H92   1.083       .  S
C88          C89   1.407       .  A
C88         C699   1.407   1_455  A
C89          F90   1.358       .  S
C94          C99   1.403       .  A
C94         C707   1.406       .  A
C94         H101   1.083       .  S
C95          C96   1.409       .  A
C95         C706   1.406   1_455  A
C96          C97   1.394       .  A
C96         F103   1.358       .  S
C97          C98   1.405       .  A
C97         H102   1.083       .  S
C98         C711   1.410   1_455  A
C99         C710   1.410       .  A
C99         F100   1.357       .  S
C104        C105   1.400       .  A
C104        C109   1.397       .  A
C104        H111   1.083       .  S
C105        C639   1.474       .  S
C105        C718   1.409       .  A
C106        C107   1.395       .  A
C106        C717   1.409       .  A
C106        F113   1.358       .  S
C107        C720   1.403       .  A
C107        H112   1.083       .  S
C108        C109   1.411       .  A
C108        C719   1.403       .  A
C109        F110   1.356       .  S
C114        C119   1.391       .  A
C114        C421   1.407       .  A
C114        H121   1.083       .  S
C115        C116   1.407       .  A
C115        C420   1.407       .  A
C116        C117   1.406       .  A
C116        F123   1.357       .  S
C117        C118   1.408       .  A
C117        H122   1.083       .  S
C118        C425   1.401       .  A
C119        C424   1.401       .  A
C119        F120   1.358       .  S
C124        C125   1.405       .  A
C124        C129   1.399       .  A
C124        H131   1.083       .  S
C125        C432   1.411       .  A
C126        C127   1.399       .  A
C126        C431   1.411       .  A
C126        F133   1.357       .  S
C127        C434   1.405       .  A
C127        H132   1.083       .  S
C128        C129   1.411       .  A
C128        C433   1.405       .  A
C129        F130   1.358       .  S
C134        C139   1.406       .  A
C134        C441   1.406       .  A
C134        H141   1.083       .  S
C135        C136   1.403       .  A
C135        C440   1.406   1_545  A
C136        C137   1.392       .  A
C136        F143   1.358       .  S
C137        C444   1.406       .  A
C137        H142   1.083       .  S
C138        C139   1.409       .  A
C138        C443   1.406       .  A
C139        F140   1.357       .  S
C144        C145   1.404       .  A
C144        C149   1.398       .  A
C144        H151   1.083       .  S
C145        C452   1.409       .  A
C146        C147   1.402       .  A
C146        C451   1.409       .  A
C146        F153   1.357       .  S
C147        C454   1.407       .  A
C147        H152   1.083       .  S
C148        C149   1.413       .  A
C148        C453   1.407       .  A
C149        F150   1.357       .  S
O154       Co174   1.960       .  S
O154        C468   1.260   1_545  A
O155        C163   1.259       .  A
O156       Co176   2.021   1_556  S
O156        C776   1.279       .  A
O157        C165   1.261       .  A
O158        C164   1.270       .  A
O159       Co174   1.974       .  S
O159        C777   1.257   1_455  A
O160        C469   1.299   1_545  A
O161       Co176   2.030   1_556  S
O161        C162   1.275       .  A
C162        O460   1.260       .  A
C162        C281   1.486       .  S
C163        O466   1.299       .  A
C163        C268   1.481       .  S
C164        O768   1.279       .  A
C164        C850   1.484       .  S
C165        O771   1.257       .  A
C165        C840   1.480       .  S
O166        C179   1.278       .  A
O167       Co175   1.983       .  S
O167        C180   1.256       .  A
O168        C487   1.262       .  A
O169       Co177   1.882       .  S
O169        C488   1.264       .  A
O170       Co175   2.119       .  S
O170        C182   1.299       .  A
O171        C181   1.276       .  A
O172       Co177   1.976       .  S
O172        C791   1.269       .  A
O173        C792   1.259   1_455  A
Co174       O178   2.023   1_556  S
Co175       O943   1.995       .  S
Co176       O484   2.033       .  S
Co177       O637   2.012       .  S
O178       Co940   1.995   1_444  S
O178       Co482   2.033   1_545  S
O178       Co636   2.012   1_455  S
C179        O784   1.269   1_455  A
C179        C248   1.483       .  S
C180        O785   1.259       .  A
C180        C870   1.474       .  S
C181        O474   1.262   1_545  A
C181        C298   1.486       .  S
C182        O475   1.264       .  A
C182        C291   1.483       .  S
C183        C261   1.481       .  S
C183        N184   1.358       .  A
C183        N188   1.354       .  A
N184        C185   1.360       .  A
C185        C251   1.486   1_655  S
C185        N186   1.360       .  A
N186        C187   1.362       .  A
C187        C221   1.484       .  S
C187        N188   1.356       .  A
C189        C231   1.474       .  S
C189        N190   1.357       .  A
C189        N194   1.354       .  A
N190        C191   1.359   1_655  A
C191        C241   1.484       .  S
C191        N192   1.360   1_455  A
N192        C193   1.362       .  A
C193        C218   1.484       .  S
C193        N194   1.356       .  A
C195        C301   1.492       .  S
C195        N196   1.356       .  A
C195        N200   1.360       .  A
N196        C197   1.357       .  A
C197        C288   1.477       .  S
C197        N198   1.358       .  A
N198        C199   1.363       .  A
C199        C514   1.488       .  S
C199        N200   1.363       .  A
C201        C278   1.487       .  S
C201        N202   1.360       .  A
C201        N206   1.357       .  A
N202        C203   1.362       .  A
C203        C211   1.484       .  S
C203        N204   1.361       .  A
N204        C205   1.357       .  A
C205        C271   1.476       .  S
C205        N206   1.358       .  A
C207        C514   1.407   1_565  A
C207        C212   1.399       .  A
C207        H214   1.083       .  S
C208        C505   1.488       .  S
C208        C513   1.407       .  A
C208        C209   1.411       .  A
C209        C210   1.399       .  A
C209        F216   1.357       .  S
C210        C211   1.405       .  A
C210        H215   1.083       .  S
C211        C518   1.408       .  A
C212        C517   1.408       .  A
C212        F213   1.358       .  S
C217        C218   1.403       .  A
C217        C222   1.395       .  A
C217        H224   1.083       .  S
C218        C831   1.412       .  A
C219        C830   1.412       .  A
C219        C220   1.397       .  A
C219        F226   1.357       .  S
C220        C833   1.404       .  A
C220        H225   1.083       .  S
C221        C832   1.404       .  A
C221        C222   1.412       .  A
C222        F223   1.356       .  S
C227        C840   1.407       .  A
C227        C232   1.398       .  A
C227        H234   1.083       .  S
C228        C777   1.480       .  S
C228        C839   1.407       .  A
C228        C229   1.409   1_655  A
C229        C230   1.397       .  A
C229        F236   1.358       .  S
C230        C231   1.403   1_455  A
C230        H235   1.083       .  S
C231        C844   1.405       .  A
C232        C843   1.405       .  A
C232        F233   1.358       .  S
C237        C238   1.406       .  A
C237        C242   1.394       .  A
C237        H244   1.083       .  S
C238        C776   1.484       .  S
C238        C851   1.409       .  A
C239        C850   1.409       .  A
C239        C240   1.403       .  A
C239        F246   1.357       .  S
C240        C853   1.407       .  A
C240        H245   1.083       .  S
C241        C852   1.407   1_455  A
C241        C242   1.407       .  A
C242        F243   1.358       .  S
C247        C860   1.406       .  A
C247        C252   1.403       .  A
C247        H254   1.083       .  S
C248        C859   1.406   1_455  A
C248        C249   1.409       .  A
C249        C250   1.394       .  A
C249        F256   1.358       .  S
C250        C251   1.405       .  A
C250        H255   1.083       .  S
C251        C864   1.410   1_455  A
C252        C863   1.410       .  A
C252        F253   1.357       .  S
C257        C258   1.400       .  A
C257        C262   1.397       .  A
C257        H264   1.083       .  S
C258        C792   1.474       .  S
C258        C871   1.409       .  A
C259        C870   1.409       .  A
C259        C260   1.395       .  A
C259        F266   1.358       .  S
C260        C873   1.403       .  A
C260        H265   1.083       .  S
C261        C872   1.403       .  A
C261        C262   1.411       .  A
C262        F263   1.356       .  S
C267        C574   1.407       .  A
C267        C272   1.391       .  A
C267        H274   1.083       .  S
C268        C573   1.407       .  A
C268        C269   1.407       .  A
C269        C270   1.406       .  A
C269        F276   1.357       .  S
C270        C271   1.408       .  A
C270        H275   1.083       .  S
C271        C578   1.401       .  A
C272        C577   1.401       .  A
C272        F273   1.358       .  S
C277        C278   1.405       .  A
C277        C282   1.399       .  A
C277        H284   1.083       .  S
C278        C585   1.411       .  A
C279        C584   1.411       .  A
C279        C280   1.399       .  A
C279        F286   1.357       .  S
C280        C587   1.405       .  A
C280        H285   1.083       .  S
C281        C586   1.405       .  A
C281        C282   1.411       .  A
C282        F283   1.358       .  S
C287        C594   1.406       .  A
C287        C292   1.406       .  A
C287        H294   1.083       .  S
C288        C593   1.406   1_545  A
C288        C289   1.403       .  A
C289        C290   1.392       .  A
C289        F296   1.358       .  S
C290        C597   1.406       .  A
C290        H295   1.083       .  S
C291        C596   1.406       .  A
C291        C292   1.409       .  A
C292        F293   1.357       .  S
C297        C298   1.404       .  A
C297        C302   1.398       .  A
C297        H304   1.083       .  S
C298        C605   1.409       .  A
C299        C604   1.409       .  A
C299        C300   1.402       .  A
C299        F306   1.357       .  S
C300        C607   1.407       .  A
C300        H305   1.083       .  S
C301        C606   1.407       .  A
C301        C302   1.413       .  A
C302        F303   1.357       .  S
O307       Co327   1.960       .  S
O308       Co481   1.873       .  S
O308        C316   1.259       .  A
O309       Co329   2.021       .  S
O309        C929   1.279       .  A
O310       Co483   2.000       .  S
O310        C318   1.261       .  A
O311       Co481   1.976       .  S
O311        C317   1.270       .  A
O312       Co327   1.974       .  S
O312        C930   1.257   1_455  A
O313       Co483   2.126       .  S
O314       Co329   2.030       .  S
O314        C315   1.275       .  A
C315        C434   1.486       .  S
C316        C421   1.481       .  S
C317        O921   1.279       .  A
C317       C1003   1.484       .  S
C318        O924   1.257       .  A
C318        C993   1.480       .  S
O319       Co480   2.022   1_554  S
O319        C332   1.278       .  A
O320       Co328   1.983   1_554  S
O320        C333   1.256       .  A
O321       Co482   1.965       .  S
O322       Co330   1.882       .  S
O323       Co328   2.118   1_554  S
O323        C335   1.299   1_565  A
O324       Co480   2.030   1_554  S
O324        C334   1.276       .  A
O325       Co330   1.976       .  S
O325        C944   1.269       .  A
O326       Co482   1.985       .  S
O326        C945   1.259   1_455  A
Co327       O472   2.022       .  S
Co327       O477   2.030       .  S
Co327       O331   2.023       .  S
Co328       O461   1.873       .  S
Co328       O464   1.976       .  S
Co328       O790   1.995   1_566  S
Co329       O474   1.965       .  S
Co329       O479   1.985       .  S
Co330       O463   2.000   1_554  S
Co330       O466   2.126   1_554  S
Co330      O1096   2.012       .  S
O331       Co787   1.995   1_455  S
O331      Co1095   2.012   1_455  S
C332        O937   1.269   1_455  A
C332        C401   1.483       .  S
C333        O938   1.259       .  A
C333       C1023   1.474       .  S
C334        C451   1.486       .  S
C335        C444   1.483       .  S
C336        C414   1.481       .  S
C336        N337   1.358       .  A
C336        N341   1.354       .  A
N337        C338   1.360       .  A
C338        C404   1.486   1_655  S
C338        N339   1.360       .  A
N339        C340   1.362       .  A
C340        C374   1.484       .  S
C340        N341   1.356       .  A
C342        C384   1.474       .  S
C342        N343   1.357       .  A
C342        N347   1.354       .  A
N343        C344   1.359   1_655  A
C344        C394   1.484       .  S
C344        N345   1.360   1_455  A
N345        C346   1.362       .  A
C346        C371   1.484       .  S
C346        N347   1.356       .  A
C348        C454   1.492       .  S
C348        N349   1.356       .  A
C348        N353   1.360       .  A
N349        C350   1.357       .  A
C350        C441   1.477       .  S
C350        N351   1.358       .  A
N351        C352   1.363       .  A
C352        N353   1.363       .  A
C354        C431   1.487       .  S
C354        N355   1.360       .  A
C354        N359   1.357       .  A
N355        C356   1.362       .  A
C356        C364   1.484       .  S
C356        N357   1.361       .  A
N357        C358   1.357       .  A
C358        C424   1.476       .  S
C358        N359   1.358       .  A
C360        C365   1.399       .  A
C360        H367   1.083       .  S
C361        C362   1.411       .  A
C362        C363   1.399       .  A
C362        F369   1.357       .  S
C363        C364   1.405   1_545  A
C363        H368   1.083       .  S
C365        F366   1.358       .  S
C370        C371   1.403       .  A
C370        C375   1.395       .  A
C370        H377   1.083       .  S
C371        C984   1.412       .  A
C372        C983   1.412       .  A
C372        C373   1.397       .  A
C372        F379   1.357       .  S
C373        C986   1.404       .  A
C373        H378   1.083       .  S
C374        C985   1.404       .  A
C374        C375   1.412       .  A
C375        F376   1.356       .  S
C380        C993   1.407       .  A
C380        C385   1.398       .  A
C380        H387   1.083       .  S
C381        C930   1.480       .  S
C381        C992   1.407       .  A
C381        C382   1.409   1_655  A
C382        C383   1.397       .  A
C382        F389   1.358       .  S
C383        C384   1.403   1_455  A
C383        H388   1.083       .  S
C384        C997   1.405       .  A
C385        C996   1.405       .  A
C385        F386   1.358       .  S
C390        C391   1.406       .  A
C390        C395   1.394       .  A
C390        H397   1.083       .  S
C391        C929   1.484       .  S
C391       C1004   1.409       .  A
C392       C1003   1.409       .  A
C392        C393   1.403       .  A
C392        F399   1.357       .  S
C393       C1006   1.407       .  A
C393        H398   1.083       .  S
C394       C1005   1.407   1_455  A
C394        C395   1.407       .  A
C395        F396   1.358       .  S
C400       C1013   1.406       .  A
C400        C405   1.403       .  A
C400        H407   1.083       .  S
C401       C1012   1.406   1_455  A
C401        C402   1.409       .  A
C402        C403   1.394       .  A
C402        F409   1.358       .  S
C403        C404   1.405       .  A
C403        H408   1.083       .  S
C404       C1017   1.410   1_455  A
C405       C1016   1.410       .  A
C405        F406   1.357       .  S
C410        C411   1.400       .  A
C410        C415   1.397       .  A
C410        H417   1.083       .  S
C411        C945   1.474       .  S
C411       C1024   1.409       .  A
C412       C1023   1.409       .  A
C412        C413   1.395       .  A
C412        F419   1.358       .  S
C413       C1026   1.403       .  A
C413        H418   1.083       .  S
C414       C1025   1.403       .  A
C414        C415   1.411       .  A
C415        F416   1.356       .  S
C420        C425   1.391       .  A
C420        H427   1.083       .  S
C421        C422   1.407   1_565  A
C422        C423   1.406       .  A
C422        F429   1.357       .  S
C423        C424   1.408   1_545  A
C423        H428   1.083       .  S
C425        F426   1.358       .  S
C430        C431   1.405       .  A
C430        C435   1.399       .  A
C430        H437   1.083       .  S
C432        C433   1.399       .  A
C432        F439   1.357       .  S
C433        H438   1.083       .  S
C434        C435   1.411       .  A
C435        F436   1.358   1_565  S
C440        C445   1.406       .  A
C440        H447   1.083       .  S
C441        C442   1.403       .  A
C442        C443   1.392       .  A
C442        F449   1.358       .  S
C443        H448   1.083       .  S
C444        C445   1.409   1_545  A
C445        F446   1.357       .  S
C450        C451   1.404       .  A
C450        C455   1.398       .  A
C450        H457   1.083       .  S
C452        C453   1.402       .  A
C452        F459   1.357       .  S
C453        H458   1.083       .  S
C454        C455   1.413       .  A
C455        F456   1.357       .  S
O460       Co480   1.960       .  S
O461        C469   1.259       .  A
O462       Co482   2.021   1_556  S
O462       C1082   1.279       .  A
O463        C471   1.261       .  A
O464        C470   1.270       .  A
O465       Co480   1.974       .  S
O465       C1083   1.257   1_455  A
O467       Co482   2.030   1_556  S
O467        C468   1.275       .  A
C468        C587   1.486       .  S
C469        C574   1.481       .  S
C470       O1074   1.279       .  A
C470       C1156   1.484       .  S
C471       O1077   1.257       .  A
C471       C1146   1.480       .  S
O472        C485   1.278       .  A
O473       Co481   1.983       .  S
O473        C486   1.256       .  A
O475       Co483   1.882       .  S
O476       Co481   2.118       .  S
O476        C488   1.299   1_565  A
O477        C487   1.276       .  A
O478       Co483   1.976       .  S
O478       C1097   1.269       .  A
O479       C1098   1.259   1_455  A
Co480       O484   2.023   1_556  S
Co481       O637   1.995   1_565  S
Co483       O943   2.012       .  S
O484       Co634   1.995   1_454  S
O484       Co942   2.012   1_455  S
C485       O1090   1.269   1_455  A
C485        C554   1.483       .  S
C486       O1091   1.259       .  A
C486       C1176   1.474       .  S
C487        C604   1.486       .  S
C488        C597   1.483       .  S
C489        C567   1.481       .  S
C489        N490   1.358       .  A
C489        N494   1.354       .  A
N490        C491   1.360       .  A
C491        C557   1.486   1_655  S
C491        N492   1.360       .  A
N492        C493   1.362       .  A
C493        C527   1.484       .  S
C493        N494   1.356       .  A
C495        C537   1.474       .  S
C495        N496   1.357       .  A
C495        N500   1.354       .  A
N496        C497   1.359   1_655  A
C497        C547   1.484       .  S
C497        N498   1.360   1_455  A
N498        C499   1.362       .  A
C499        C524   1.484       .  S
C499        N500   1.356       .  A
C501        C607   1.492       .  S
C501        N502   1.356       .  A
C501        N506   1.360       .  A
N502        C503   1.357       .  A
C503        C594   1.477       .  S
C503        N504   1.358       .  A
N504        C505   1.363       .  A
C505        N506   1.363       .  A
C507        C584   1.487       .  S
C507        N508   1.360       .  A
C507        N512   1.357       .  A
N508        C509   1.362       .  A
C509        C517   1.484       .  S
C509        N510   1.361       .  A
N510        C511   1.357       .  A
C511        C577   1.476       .  S
C511        N512   1.358       .  A
C513        C518   1.399       .  A
C513        H520   1.083       .  S
C514        C515   1.411       .  A
C515        C516   1.399       .  A
C515        F522   1.357       .  S
C516        C517   1.405   1_545  A
C516        H521   1.083       .  S
C518        F519   1.358       .  S
C523        C524   1.403       .  A
C523        C528   1.395       .  A
C523        H530   1.083       .  S
C524       C1137   1.412       .  A
C525       C1136   1.412       .  A
C525        C526   1.397       .  A
C525        F532   1.357       .  S
C526       C1139   1.404       .  A
C526        H531   1.083       .  S
C527       C1138   1.404       .  A
C527        C528   1.412       .  A
C528        F529   1.356       .  S
C533       C1146   1.407       .  A
C533        C538   1.398       .  A
C533        H540   1.083       .  S
C534       C1083   1.480       .  S
C534       C1145   1.407       .  A
C534        C535   1.409   1_655  A
C535        C536   1.397       .  A
C535        F542   1.358       .  S
C536        C537   1.403   1_455  A
C536        H541   1.083       .  S
C537       C1150   1.405       .  A
C538       C1149   1.405       .  A
C538        F539   1.358       .  S
C543        C544   1.406       .  A
C543        C548   1.394       .  A
C543        H550   1.083       .  S
C544       C1082   1.484       .  S
C544       C1157   1.409       .  A
C545       C1156   1.409       .  A
C545        C546   1.403       .  A
C545        F552   1.357       .  S
C546       C1159   1.407       .  A
C546        H551   1.083       .  S
C547       C1158   1.407   1_455  A
C547        C548   1.407       .  A
C548        F549   1.358       .  S
C553       C1166   1.406       .  A
C553        C558   1.403       .  A
C553        H560   1.083       .  S
C554       C1165   1.406   1_455  A
C554        C555   1.409       .  A
C555        C556   1.394       .  A
C555        F562   1.358       .  S
C556        C557   1.405       .  A
C556        H561   1.083       .  S
C557       C1170   1.410   1_455  A
C558       C1169   1.410       .  A
C558        F559   1.357       .  S
C563        C564   1.400       .  A
C563        C568   1.397       .  A
C563        H570   1.083       .  S
C564       C1098   1.474       .  S
C564       C1177   1.409       .  A
C565       C1176   1.409       .  A
C565        C566   1.395       .  A
C565        F572   1.358       .  S
C566       C1179   1.403       .  A
C566        H571   1.083       .  S
C567       C1178   1.403       .  A
C567        C568   1.411       .  A
C568        F569   1.356       .  S
C573        C578   1.391       .  A
C573        H580   1.083       .  S
C574        C575   1.407   1_565  A
C575        C576   1.406       .  A
C575        F582   1.357       .  S
C576        C577   1.408   1_545  A
C576        H581   1.083       .  S
C578        F579   1.358       .  S
C583        C584   1.405       .  A
C583        C588   1.399       .  A
C583        H590   1.083       .  S
C585        C586   1.399       .  A
C585        F592   1.357       .  S
C586        H591   1.083       .  S
C587        C588   1.411       .  A
C588        F589   1.358   1_565  S
C593        C598   1.406       .  A
C593        H600   1.083       .  S
C594        C595   1.403       .  A
C595        C596   1.392       .  A
C595        F602   1.358       .  S
C596        H601   1.083       .  S
C597        C598   1.409   1_545  A
C598        F599   1.357       .  S
C603        C604   1.404       .  A
C603        C608   1.398       .  A
C603        H610   1.083       .  S
C605        C606   1.402       .  A
C605        F612   1.357       .  S
C606        H611   1.083       .  S
C607        C608   1.413       .  A
C608        F609   1.357       .  S
O613       Co633   1.960       .  S
O613        C927   1.260   1_545  A
O614       Co787   1.873       .  S
O614        C622   1.259       .  A
O615       Co635   2.021       .  S
O616       Co789   2.000       .  S
O616        C624   1.261       .  A
O617       Co787   1.976       .  S
O617        C623   1.270   1_655  A
O618       Co633   1.974       .  S
O619       Co789   2.126       .  S
O619        C928   1.299   1_545  A
O620       Co635   2.030       .  S
O620        C621   1.275       .  A
C621        O919   1.260       .  A
C621        C740   1.486       .  S
C622        O925   1.299       .  A
C622        C727   1.481       .  S
O625       Co786   2.022   1_554  S
O625        C638   1.278       .  A
O626       Co634   1.983   1_554  S
O626        C639   1.256       .  A
O627       Co788   1.965       .  S
O627        C946   1.262       .  A
O628       Co636   1.882       .  S
O628        C947   1.264       .  A
O629       Co634   2.119   1_554  S
O629        C641   1.299       .  A
O630       Co786   2.030   1_554  S
O630        C640   1.276       .  A
O631       Co636   1.976       .  S
O632       Co788   1.985       .  S
Co633       O778   2.022       .  S
Co633       O783   2.030       .  S
Co633       O637   2.023       .  S
Co634       O767   1.873       .  S
Co634       O770   1.976       .  S
Co635       O780   1.965       .  S
Co635       O785   1.985       .  S
Co635       O943   2.033       .  S
Co636       O769   2.000   1_554  S
Co636       O772   2.126   1_554  S
O637       Co941   2.033   1_545  S
C638        C707   1.483       .  S
C640        O933   1.262   1_545  A
C640        C757   1.486       .  S
C641        O934   1.264       .  A
C641        C750   1.483       .  S
C642        C720   1.481       .  S
C642        N643   1.358       .  A
C642        N647   1.354       .  A
N643        C644   1.360       .  A
C644        C710   1.486       .  S
C644        N645   1.360       .  A
N645        C646   1.362       .  A
C646        C680   1.484       .  S
C646        N647   1.356       .  A
C648        C690   1.474       .  S
C648        N649   1.357       .  A
C648        N653   1.354       .  A
N649        C650   1.359       .  A
C650        C700   1.484       .  S
C650        N651   1.360       .  A
N651        C652   1.362       .  A
C652        C677   1.484       .  S
C652        N653   1.356       .  A
C654        C760   1.492       .  S
C654        N655   1.356       .  A
C654        N659   1.360       .  A
N655        C656   1.357       .  A
C656        C747   1.477       .  S
C656        N657   1.358       .  A
N657        C658   1.363       .  A
C658        C973   1.488       .  S
C658        N659   1.363       .  A
C660        C737   1.487       .  S
C660        N661   1.360       .  A
C660        N665   1.357       .  A
N661        C662   1.362       .  A
C662        C670   1.484       .  S
C662        N663   1.361       .  A
N663        C664   1.357       .  A
C664        C730   1.476       .  S
C664        N665   1.358       .  A
C666        C973   1.407   1_565  A
C666        C671   1.399       .  A
C666        H673   1.083       .  S
C667        C964   1.488       .  S
C667        C972   1.407       .  A
C667        C668   1.411       .  A
C668        C669   1.399       .  A
C668        F675   1.357       .  S
C669        C670   1.405       .  A
C669        H674   1.083       .  S
C670        C977   1.408       .  A
C671        C976   1.408       .  A
C671        F672   1.358       .  S
C676        C677   1.403       .  A
C676        C681   1.395       .  A
C676        H683   1.083       .  S
C678        C679   1.397       .  A
C678        F685   1.357       .  S
C679        H684   1.083       .  S
C680        C681   1.412       .  A
C681        F682   1.356       .  S
C686        C691   1.398       .  A
C686        H693   1.083       .  S
C687        C688   1.409       .  A
C688        C689   1.397       .  A
C688        F695   1.358       .  S
C689        C690   1.403       .  A
C689        H694   1.083       .  S
C691        F692   1.358       .  S
C696        C697   1.406       .  A
C696        C701   1.394       .  A
C696        H703   1.083       .  S
C698        C699   1.403   1_455  A
C698        F705   1.357   1_455  S
C699        H704   1.083       .  S
C700        C701   1.407       .  A
C701        F702   1.358       .  S
C706        C711   1.403       .  A
C706        H713   1.083       .  S
C707        C708   1.409       .  A
C708        C709   1.394       .  A
C708        F715   1.358       .  S
C709        C710   1.405       .  A
C709        H714   1.083       .  S
C711        F712   1.357       .  S
C716        C717   1.400       .  A
C716        C721   1.397       .  A
C716        H723   1.083       .  S
C718        C719   1.395       .  A
C718        F725   1.358       .  S
C719        H724   1.083       .  S
C720        C721   1.411       .  A
C721        F722   1.356       .  S
C726       C1033   1.407       .  A
C726        C731   1.391       .  A
C726        H733   1.083       .  S
C727       C1032   1.407       .  A
C727        C728   1.407       .  A
C728        C729   1.406       .  A
C728        F735   1.357       .  S
C729        C730   1.408       .  A
C729        H734   1.083       .  S
C730       C1037   1.401       .  A
C731       C1036   1.401       .  A
C731        F732   1.358       .  S
C736        C737   1.405       .  A
C736        C741   1.399       .  A
C736        H743   1.083       .  S
C737       C1044   1.411       .  A
C738       C1043   1.411       .  A
C738        C739   1.399       .  A
C738        F745   1.357       .  S
C739       C1046   1.405       .  A
C739        H744   1.083       .  S
C740       C1045   1.405       .  A
C740        C741   1.411       .  A
C741        F742   1.358       .  S
C746       C1053   1.406       .  A
C746        C751   1.406       .  A
C746        H753   1.083       .  S
C747       C1052   1.406   1_545  A
C747        C748   1.403       .  A
C748        C749   1.392       .  A
C748        F755   1.358       .  S
C749       C1056   1.406       .  A
C749        H754   1.083       .  S
C750       C1055   1.406       .  A
C750        C751   1.409       .  A
C751        F752   1.357       .  S
C756        C757   1.404       .  A
C756        C761   1.398       .  A
C756        H763   1.083       .  S
C757       C1064   1.409       .  A
C758       C1063   1.409       .  A
C758        C759   1.402       .  A
C758        F765   1.357       .  S
C759       C1066   1.407       .  A
C759        H764   1.083       .  S
C760       C1065   1.407       .  A
C760        C761   1.413       .  A
C761        F762   1.357       .  S
O766       Co786   1.960       .  S
O766       C1080   1.260   1_545  A
O767        C775   1.259       .  A
O768       Co788   2.021   1_556  S
O769        C777   1.261       .  A
O770        C776   1.270   1_655  A
O771       Co786   1.974       .  S
O772       C1081   1.299   1_545  A
O773       Co788   2.030   1_556  S
O773        C774   1.275       .  A
C774       O1072   1.260       .  A
C774        C893   1.486       .  S
C775       O1078   1.299       .  A
C775        C880   1.481       .  S
O778        C791   1.278       .  A
O779       Co787   1.983       .  S
O779        C792   1.256       .  A
O780       C1099   1.262       .  A
O781       Co789   1.882       .  S
O781       C1100   1.264       .  A
O782       Co787   2.119       .  S
O782        C794   1.299       .  A
O783        C793   1.276       .  A
O784       Co789   1.976       .  S
Co786       O790   2.023   1_556  S
Co788      O1096   2.033       .  S
O790      Co1094   2.033   1_545  S
C791        C860   1.483       .  S
C793       O1086   1.262   1_545  A
C793        C910   1.486       .  S
C794       O1087   1.264       .  A
C794        C903   1.483       .  S
C795        C873   1.481       .  S
C795        N796   1.358       .  A
C795        N800   1.354       .  A
N796        C797   1.360       .  A
C797        C863   1.486       .  S
C797        N798   1.360       .  A
N798        C799   1.362       .  A
C799        C833   1.484       .  S
C799        N800   1.356       .  A
C801        C843   1.474       .  S
C801        N802   1.357       .  A
C801        N806   1.354       .  A
N802        C803   1.359       .  A
C803        C853   1.484       .  S
C803        N804   1.360       .  A
N804        C805   1.362       .  A
C805        C830   1.484       .  S
C805        N806   1.356       .  A
C807        C913   1.492       .  S
C807        N808   1.356       .  A
C807        N812   1.360       .  A
N808        C809   1.357       .  A
C809        C900   1.477       .  S
C809        N810   1.358       .  A
N810        C811   1.363       .  A
C811       C1126   1.488       .  S
C811        N812   1.363       .  A
C813        C890   1.487       .  S
C813        N814   1.360       .  A
C813        N818   1.357       .  A
N814        C815   1.362       .  A
C815        C823   1.484       .  S
C815        N816   1.361       .  A
N816        C817   1.357       .  A
C817        C883   1.476       .  S
C817        N818   1.358       .  A
C819       C1126   1.407   1_565  A
C819        C824   1.399       .  A
C819        H826   1.083       .  S
C820       C1117   1.488       .  S
C820       C1125   1.407       .  A
C820        C821   1.411       .  A
C821        C822   1.399       .  A
C821        F828   1.357       .  S
C822        C823   1.405       .  A
C822        H827   1.083       .  S
C823       C1130   1.408       .  A
C824       C1129   1.408       .  A
C824        F825   1.358       .  S
C829        C830   1.403       .  A
C829        C834   1.395       .  A
C829        H836   1.083       .  S
C831        C832   1.397       .  A
C831        F838   1.357       .  S
C832        H837   1.083       .  S
C833        C834   1.412       .  A
C834        F835   1.356       .  S
C839        C844   1.398       .  A
C839        H846   1.083       .  S
C840        C841   1.409       .  A
C841        C842   1.397       .  A
C841        F848   1.358       .  S
C842        C843   1.403       .  A
C842        H847   1.083       .  S
C844        F845   1.358       .  S
C849        C850   1.406       .  A
C849        C854   1.394       .  A
C849        H856   1.083       .  S
C851        C852   1.403   1_455  A
C851        F858   1.357   1_455  S
C852        H857   1.083       .  S
C853        C854   1.407       .  A
C854        F855   1.358       .  S
C859        C864   1.403       .  A
C859        H866   1.083       .  S
C860        C861   1.409       .  A
C861        C862   1.394       .  A
C861        F868   1.358       .  S
C862        C863   1.405       .  A
C862        H867   1.083       .  S
C864        F865   1.357       .  S
C869        C870   1.400       .  A
C869        C874   1.397       .  A
C869        H876   1.083       .  S
C871        C872   1.395       .  A
C871        F878   1.358       .  S
C872        H877   1.083       .  S
C873        C874   1.411       .  A
C874        F875   1.356       .  S
C879       C1186   1.407       .  A
C879        C884   1.391       .  A
C879        H886   1.083       .  S
C880       C1185   1.407       .  A
C880        C881   1.407       .  A
C881        C882   1.406       .  A
C881        F888   1.357       .  S
C882        C883   1.408       .  A
C882        H887   1.083       .  S
C883       C1190   1.401       .  A
C884       C1189   1.401       .  A
C884        F885   1.358       .  S
C889        C890   1.405       .  A
C889        C894   1.399       .  A
C889        H896   1.083       .  S
C890       C1197   1.411       .  A
C891       C1196   1.411       .  A
C891        C892   1.399       .  A
C891        F898   1.357       .  S
C892       C1199   1.405       .  A
C892        H897   1.083       .  S
C893       C1198   1.405       .  A
C893        C894   1.411       .  A
C894        F895   1.358       .  S
C899       C1206   1.406       .  A
C899        C904   1.406       .  A
C899        H906   1.083       .  S
C900       C1205   1.406   1_545  A
C900        C901   1.403       .  A
C901        C902   1.392       .  A
C901        F908   1.358       .  S
C902       C1209   1.406       .  A
C902        H907   1.083       .  S
C903       C1208   1.406       .  A
C903        C904   1.409       .  A
C904        F905   1.357       .  S
C909        C910   1.404       .  A
C909        C914   1.398       .  A
C909        H916   1.083       .  S
C910       C1217   1.409       .  A
C911       C1216   1.409       .  A
C911        C912   1.402       .  A
C911        F918   1.357       .  S
C912       C1219   1.407       .  A
C912        H917   1.083       .  S
C913       C1218   1.407       .  A
C913        C914   1.413       .  A
C914        F915   1.357       .  S
O919       Co939   1.960       .  S
O920      Co1093   1.873       .  S
O920        C928   1.259       .  A
O921       Co941   2.021       .  S
O922      Co1095   2.000       .  S
O922        C930   1.261       .  A
O923      Co1093   1.976       .  S
O923        C929   1.270   1_655  A
O924       Co939   1.974       .  S
O925      Co1095   2.126       .  S
O926       Co941   2.030       .  S
O926        C927   1.275       .  A
C927       C1046   1.486       .  S
C928       C1033   1.481       .  S
O931      Co1092   2.022   1_554  S
O931        C944   1.278       .  A
O932       Co940   1.983   1_554  S
O932        C945   1.256       .  A
O933      Co1094   1.965       .  S
O934       Co942   1.882       .  S
O935       Co940   2.118   1_554  S
O935        C947   1.299   1_565  A
O936      Co1092   2.030   1_554  S
O936        C946   1.276       .  A
O937       Co942   1.976       .  S
O938      Co1094   1.985       .  S
Co939      O1084   2.022       .  S
Co939      O1089   2.030       .  S
Co939       O943   2.023       .  S
Co940      O1073   1.873       .  S
Co940      O1076   1.976       .  S
Co941      O1086   1.965       .  S
Co941      O1091   1.985       .  S
Co942      O1075   2.000   1_554  S
Co942      O1078   2.126   1_554  S
C944       C1013   1.483       .  S
C946       C1063   1.486       .  S
C947       C1056   1.483       .  S
C948       C1026   1.481       .  S
C948        N949   1.358       .  A
C948        N953   1.354       .  A
N949        C950   1.360       .  A
C950       C1016   1.486       .  S
C950        N951   1.360       .  A
N951        C952   1.362       .  A
C952        C986   1.484       .  S
C952        N953   1.356       .  A
C954        C996   1.474       .  S
C954        N955   1.357       .  A
C954        N959   1.354       .  A
N955        C956   1.359       .  A
C956       C1006   1.484       .  S
C956        N957   1.360       .  A
N957        C958   1.362       .  A
C958        C983   1.484       .  S
C958        N959   1.356       .  A
C960       C1066   1.492       .  S
C960        N961   1.356       .  A
C960        N965   1.360       .  A
N961        C962   1.357       .  A
C962       C1053   1.477       .  S
C962        N963   1.358       .  A
N963        C964   1.363       .  A
C964        N965   1.363       .  A
C966       C1043   1.487       .  S
C966        N967   1.360       .  A
C966        N971   1.357       .  A
N967        C968   1.362       .  A
C968        C976   1.484       .  S
C968        N969   1.361       .  A
N969        C970   1.357       .  A
C970       C1036   1.476       .  S
C970        N971   1.358       .  A
C972        C977   1.399       .  A
C972        H979   1.083       .  S
C973        C974   1.411       .  A
C974        C975   1.399       .  A
C974        F981   1.357       .  S
C975        C976   1.405   1_545  A
C975        H980   1.083       .  S
C977        F978   1.358       .  S
C982        C983   1.403       .  A
C982        C987   1.395       .  A
C982        H989   1.083       .  S
C984        C985   1.397       .  A
C984        F991   1.357       .  S
C985        H990   1.083       .  S
C986        C987   1.412       .  A
C987        F988   1.356       .  S
C992        C997   1.398       .  A
C992        H999   1.083       .  S
C993        C994   1.409       .  A
C994        C995   1.397       .  A
C994       F1001   1.358       .  S
C995        C996   1.403       .  A
C995       H1000   1.083       .  S
C997        F998   1.358       .  S
C1002      C1003   1.406       .  A
C1002      C1007   1.394       .  A
C1002      H1009   1.083       .  S
C1004      C1005   1.403   1_455  A
C1004      F1011   1.357   1_455  S
C1005      H1010   1.083       .  S
C1006      C1007   1.407       .  A
C1007      F1008   1.358       .  S
C1012      C1017   1.403       .  A
C1012      H1019   1.083       .  S
C1013      C1014   1.409       .  A
C1014      C1015   1.394       .  A
C1014      F1021   1.358       .  S
C1015      C1016   1.405       .  A
C1015      H1020   1.083       .  S
C1017      F1018   1.357       .  S
C1022      C1023   1.400       .  A
C1022      C1027   1.397       .  A
C1022      H1029   1.083       .  S
C1024      C1025   1.395       .  A
C1024      F1031   1.358       .  S
C1025      H1030   1.083       .  S
C1026      C1027   1.411       .  A
C1027      F1028   1.356       .  S
C1032      C1037   1.391       .  A
C1032      H1039   1.083       .  S
C1033      C1034   1.407   1_565  A
C1034      C1035   1.406       .  A
C1034      F1041   1.357       .  S
C1035      C1036   1.408   1_545  A
C1035      H1040   1.083       .  S
C1037      F1038   1.358       .  S
C1042      C1043   1.405       .  A
C1042      C1047   1.399       .  A
C1042      H1049   1.083       .  S
C1044      C1045   1.399       .  A
C1044      F1051   1.357       .  S
C1045      H1050   1.083       .  S
C1046      C1047   1.411       .  A
C1047      F1048   1.358   1_565  S
C1052      C1057   1.406       .  A
C1052      H1059   1.083       .  S
C1053      C1054   1.403       .  A
C1054      C1055   1.392       .  A
C1054      F1061   1.358       .  S
C1055      H1060   1.083       .  S
C1056      C1057   1.409   1_545  A
C1057      F1058   1.357       .  S
C1062      C1063   1.404       .  A
C1062      C1067   1.398       .  A
C1062      H1069   1.083       .  S
C1064      C1065   1.402       .  A
C1064      F1071   1.357       .  S
C1065      H1070   1.083       .  S
C1066      C1067   1.413       .  A
C1067      F1068   1.357       .  S
O1072     Co1092   1.960       .  S
O1073      C1081   1.259       .  A
O1074     Co1094   2.021   1_556  S
O1075      C1083   1.261       .  A
O1076      C1082   1.270   1_655  A
O1077     Co1092   1.974       .  S
O1079     Co1094   2.030   1_556  S
O1079      C1080   1.275       .  A
C1080      C1199   1.486       .  S
C1081      C1186   1.481       .  S
O1084      C1097   1.278       .  A
O1085     Co1093   1.983       .  S
O1085      C1098   1.256       .  A
O1087     Co1095   1.882       .  S
O1088     Co1093   2.118       .  S
O1088      C1100   1.299   1_565  A
O1089      C1099   1.276       .  A
O1090     Co1095   1.976       .  S
Co1092     O1096   2.023   1_556  S
C1097      C1166   1.483       .  S
C1099      C1216   1.486       .  S
C1100      C1209   1.483       .  S
C1101      C1179   1.481       .  S
C1101      N1102   1.358       .  A
C1101      N1106   1.354       .  A
N1102      C1103   1.360       .  A
C1103      C1169   1.486       .  S
C1103      N1104   1.360       .  A
N1104      C1105   1.362       .  A
C1105      C1139   1.484       .  S
C1105      N1106   1.356       .  A
C1107      C1149   1.474       .  S
C1107      N1108   1.357       .  A
C1107      N1112   1.354       .  A
N1108      C1109   1.359       .  A
C1109      C1159   1.484       .  S
C1109      N1110   1.360       .  A
N1110      C1111   1.362       .  A
C1111      C1136   1.484       .  S
C1111      N1112   1.356       .  A
C1113      C1219   1.492       .  S
C1113      N1114   1.356       .  A
C1113      N1118   1.360       .  A
N1114      C1115   1.357       .  A
C1115      C1206   1.477       .  S
C1115      N1116   1.358       .  A
N1116      C1117   1.363       .  A
C1117      N1118   1.363       .  A
C1119      C1196   1.487       .  S
C1119      N1120   1.360       .  A
C1119      N1124   1.357       .  A
N1120      C1121   1.362       .  A
C1121      C1129   1.484       .  S
C1121      N1122   1.361       .  A
N1122      C1123   1.357       .  A
C1123      C1189   1.476       .  S
C1123      N1124   1.358       .  A
C1125      C1130   1.399       .  A
C1125      H1132   1.083       .  S
C1126      C1127   1.411       .  A
C1127      C1128   1.399       .  A
C1127      F1134   1.357       .  S
C1128      C1129   1.405   1_545  A
C1128      H1133   1.083       .  S
C1130      F1131   1.358       .  S
C1135      C1136   1.403       .  A
C1135      C1140   1.395       .  A
C1135      H1142   1.083       .  S
C1137      C1138   1.397       .  A
C1137      F1144   1.357       .  S
C1138      H1143   1.083       .  S
C1139      C1140   1.412       .  A
C1140      F1141   1.356       .  S
C1145      C1150   1.398       .  A
C1145      H1152   1.083       .  S
C1146      C1147   1.409       .  A
C1147      C1148   1.397       .  A
C1147      F1154   1.358       .  S
C1148      C1149   1.403       .  A
C1148      H1153   1.083       .  S
C1150      F1151   1.358       .  S
C1155      C1156   1.406       .  A
C1155      C1160   1.394       .  A
C1155      H1162   1.083       .  S
C1157      C1158   1.403   1_455  A
C1157      F1164   1.357   1_455  S
C1158      H1163   1.083       .  S
C1159      C1160   1.407       .  A
C1160      F1161   1.358       .  S
C1165      C1170   1.403       .  A
C1165      H1172   1.083       .  S
C1166      C1167   1.409       .  A
C1167      C1168   1.394       .  A
C1167      F1174   1.358       .  S
C1168      C1169   1.405       .  A
C1168      H1173   1.083       .  S
C1170      F1171   1.357       .  S
C1175      C1176   1.400       .  A
C1175      C1180   1.397       .  A
C1175      H1182   1.083       .  S
C1177      C1178   1.395       .  A
C1177      F1184   1.358       .  S
C1178      H1183   1.083       .  S
C1179      C1180   1.411       .  A
C1180      F1181   1.356       .  S
C1185      C1190   1.391       .  A
C1185      H1192   1.083       .  S
C1186      C1187   1.407   1_565  A
C1187      C1188   1.406       .  A
C1187      F1194   1.357       .  S
C1188      C1189   1.408   1_545  A
C1188      H1193   1.083       .  S
C1190      F1191   1.358       .  S
C1195      C1196   1.405       .  A
C1195      C1200   1.399       .  A
C1195      H1202   1.083       .  S
C1197      C1198   1.399       .  A
C1197      F1204   1.357       .  S
C1198      H1203   1.083       .  S
C1199      C1200   1.411       .  A
C1200      F1201   1.358   1_565  S
C1205      C1210   1.406       .  A
C1205      H1212   1.083       .  S
C1206      C1207   1.403       .  A
C1207      C1208   1.392       .  A
C1207      F1214   1.358       .  S
C1208      H1213   1.083       .  S
C1209      C1210   1.409   1_545  A
C1210      F1211   1.357       .  S
C1215      C1216   1.404       .  A
C1215      C1220   1.398       .  A
C1215      H1222   1.083       .  S
C1217      C1218   1.402       .  A
C1217      F1224   1.357       .  S
C1218      H1223   1.083       .  S
C1219      C1220   1.413       .  A
C1220      F1221   1.357       .  S
