geometry optimzed in LAMMPS
_audit_creation_date              2020-12-01 
_audit_creation_method            'lammps2cif' 
_symmetry_space_group_name_H-M    'P1' 
_symmetry_Int_Tables_number       1 
_symmetry_cell_setting            triclinic 
loop_ 
_symmetry_equiv_pos_as_xyz 
  x,y,z 
_cell_length_a                    78.58804757 
_cell_length_b                    78.54497963713263 
_cell_length_c                    38.778484309708396 
_cell_angle_alpha                 89.94763642913462 
_cell_angle_beta                  90.06666889008942 
_cell_angle_gamma                 152.9610347752421 
loop_ 
_atom_site_label 
_atom_site_type_symbol 
_atom_site_fract_x 
_atom_site_fract_y 
_atom_site_fract_z 
_atom_site_charge 
N1          N  0.08602186  0.51118160  0.32916912    -0.27000
N2          N  0.10537764  0.51690890  0.31187039    -0.34800
C3          C  0.12497454  0.52480041  0.33428929     0.01300
C4          C  0.11747991  0.52388727  0.36723131     0.07400
C5          C  0.09260057  0.51504266  0.36306150    -0.05700
H6          H  0.14373527  0.53131763  0.32704928     0.08000
H7          H  0.08105693  0.51278161  0.38305878     0.09200
Cu8        Cu  0.10578291  0.51557960  0.25858449     0.44200
Cu9        Cu  0.05434783  0.50192160  0.30605920     0.42000
Cu10       Cu  0.04912192  0.49570764  0.21275300     0.43900
N11         N  0.10243213  0.51372802  0.20531844    -0.34400
N12         N  0.08081027  0.50528713  0.18840536    -0.28600
C13         C  0.08587571  0.50755840  0.15430510    -0.04700
C14         C  0.11219218  0.51827235  0.14965731     0.07500
C15         C  0.12204175  0.52190515  0.18252805     0.01300
H16         H  0.07245392  0.50311891  0.13444973     0.08900
H17         H  0.14243942  0.53048499  0.18945454     0.08000
N18         N  0.02816809  0.49694993  0.24230445    -0.35800
N19         N  0.03006806  0.49926695  0.27632593    -0.28000
C20         C  0.01715041  0.50294692  0.28711411    -0.03200
C21         C  0.00686856  0.50326078  0.25846658     0.05400
C22         C  0.01412187  0.49921868  0.23056111     0.03500
H23         H  0.01707502  0.50701540  0.31371702     0.08600
H24         H  0.01033180  0.49884388  0.20355944     0.07400
N25         N  0.13865687  0.53161310  0.06134392    -0.27000
N26         N  0.16458273  0.54621703  0.07855442    -0.34800
C27         C  0.15888329  0.54330051  0.11256407     0.01300
C28         C  0.12802878  0.52625050  0.11689224     0.07400
C29         C  0.11594471  0.51928028  0.08388535    -0.05700
H30         H  0.17638158  0.55353956  0.13260026     0.08000
H31         H  0.09243314  0.50626350  0.07672207     0.09200
Cu32       Cu  0.20782158  0.57156486  0.05468049     0.44200
Cu33       Cu  0.13550624  0.52918371  0.00802162     0.42000
Cu34       Cu  0.21223138  0.57558199  0.46187527     0.43900
N35         N  0.25074983  0.60004435  0.02445363    -0.34400
N36         N  0.25635485  0.60616567  0.49174705    -0.28600
C37         C  0.29072842  0.63294122  0.48006670    -0.04700
C38         C  0.30689393  0.64250422  0.00592219     0.07500
C39         C  0.28600680  0.62810784  0.03465523     0.01300
H40         H  0.29887703  0.64055081  0.45321264     0.08900
H41         H  0.29634858  0.63915169  0.06061233     0.08000
N42         N  0.17015828  0.55191039  0.43796054    -0.35800
N43         N  0.14601729  0.53988188  0.45517550    -0.28000
C44         C  0.12352382  0.52790088  0.43270355    -0.03200
C45         C  0.13389575  0.53245090  0.39974686     0.05400
C46         C  0.16355438  0.54773738  0.40396310     0.03500
H47         H  0.10126435  0.51669312  0.43990197     0.08600
H48         H  0.17961133  0.55590355  0.38387736     0.07400
N49         N  0.89126328  0.53571865  0.17569354    -0.27000
N50         N  0.87687984  0.53597526  0.19261071    -0.34800
C51         C  0.86543056  0.53760125  0.16989270     0.01300
C52         C  0.87317737  0.53870683  0.13706394     0.07400
C53         C  0.88958280  0.53750779  0.14162206    -0.05700
H54         H  0.85277609  0.53835524  0.17686499     0.08000
H55         H  0.89926194  0.53757740  0.12168351     0.09200
Cu56       Cu  0.87493665  0.53618985  0.24574747     0.44200
Cu57       Cu  0.91234432  0.53280391  0.19994374     0.42000
Cu58       Cu  0.91966802  0.54250775  0.29304450     0.43900
N59         N  0.88121830  0.54208193  0.29874408    -0.34400
N60         N  0.89858063  0.54538052  0.31599968    -0.28600
C61         C  0.89832516  0.54896830  0.34975839    -0.04700
C62         C  0.87979989  0.54776301  0.35390342     0.07500
C63         C  0.86931451  0.54338169  0.32106606     0.01300
H64         H  0.91007989  0.55147524  0.36978965     0.08900
H65         H  0.85389418  0.54096032  0.31390089     0.08000
N66         N  0.93414390  0.53390817  0.26552958    -0.35800
N67         N  0.93162306  0.53035621  0.23161959    -0.28000
C68         C  0.94293423  0.52475733  0.22225422    -0.03200
C69         C  0.95284994  0.52461297  0.25172580     0.05400
C70         C  0.94683510  0.53046080  0.27863155     0.03500
H71         H  0.94339191  0.52057382  0.19596522     0.08600
H72         H  0.95174450  0.53255220  0.30577346     0.07400
N73         N  0.86564045  0.54933013  0.44211936    -0.27000
N74         N  0.84682375  0.54440126  0.42510766    -0.34800
C75         C  0.84978338  0.54407811  0.39108036     0.01300
C76         C  0.87139989  0.54893759  0.38651675     0.07400
C77         C  0.88106590  0.55227358  0.41934182    -0.05700
H78         H  0.83608065  0.53930713  0.37127078     0.08000
H79         H  0.89713754  0.55543208  0.42628067     0.09200
Cu80       Cu  0.81466988  0.53436879  0.44836994     0.44200
Cu81       Cu  0.86730671  0.54873791  0.49542676     0.42000
Cu82       Cu  0.80610362  0.52297821  0.04202256     0.43900
N83         N  0.77900609  0.51722830  0.47803663    -0.34400
N84         N  0.77334301  0.51001904  0.01287176    -0.28600
C85         C  0.74504971  0.49452146  0.02433648    -0.04700
C86         C  0.73279449  0.49261459  0.49509003     0.07500
C87         C  0.75323557  0.50549780  0.46691710     0.01300
H88         H  0.73554362  0.48651981  0.05079592     0.08900
H89         H  0.74830213  0.50431663  0.44016728     0.08000
N90         N  0.83951809  0.53482411  0.06603183    -0.35800
N91         N  0.86107373  0.54325433  0.04904522    -0.28000
C92         C  0.87691036  0.54653055  0.07166442    -0.03200
C93         C  0.86481587  0.54002606  0.10442249     0.05400
C94         C  0.84131651  0.53289612  0.09990520     0.03500
H95         H  0.89534745  0.55259521  0.06469693     0.08600
H96         H  0.82560959  0.52552144  0.11960240     0.07400
N97         N  0.45387125  0.14565989  0.18571763    -0.27000
N98         N  0.46017299  0.16546398  0.20307717    -0.34800
C99         C  0.46758987  0.18469459  0.18071064     0.01300
C100        C  0.46570916  0.17640900  0.14777132     0.07400
C101        C  0.45686195  0.15153233  0.15181959    -0.05700
H102        H  0.47458894  0.20384464  0.18798014     0.08000
H103        H  0.45418015  0.13965538  0.13175990     0.09200
Cu104      Cu  0.46080560  0.16736486  0.25621273     0.44200
Cu105      Cu  0.44505410  0.11445270  0.20868413     0.42000
Cu106      Cu  0.44666298  0.11518075  0.30188751     0.43900
N107        N  0.46239760  0.16660412  0.30923017    -0.34400
N108        N  0.45650694  0.14694570  0.32600218    -0.28600
C109        C  0.45985881  0.15276005  0.36002851    -0.04700
C110        C  0.46848976  0.17742903  0.36474263     0.07500
C111        C  0.46996654  0.18571977  0.33207407     0.01300
H112        H  0.45706606  0.14059733  0.37973589     0.08900
H113        H  0.47620489  0.20434491  0.32532566     0.08000
N114        N  0.44287153  0.09023825  0.27166497    -0.35800
N115        N  0.44213524  0.08983377  0.23760543    -0.28000
C116        C  0.44245535  0.07404661  0.22580984    -0.03200
C117        C  0.44370754  0.06426283  0.25383018     0.05400
C118        C  0.44380146  0.07483049  0.28248823     0.03500
H119        H  0.44364546  0.07167099  0.19882016     0.08600
H120        H  0.44533917  0.07236817  0.30925266     0.07400
N121        N  0.48047879  0.20258114  0.45295229    -0.27000
N122        N  0.49479758  0.22834979  0.43582747    -0.34800
C123        C  0.49224975  0.22303820  0.40184468     0.01300
C124        C  0.47572817  0.19257953  0.39745281     0.07400
C125        C  0.46863426  0.18025491  0.43030747    -0.05700
H126        H  0.50262982  0.24070393  0.38193358     0.08000
H127        H  0.45599253  0.15695453  0.43729133     0.09200
Cu128      Cu  0.52024239  0.27151390  0.45921161     0.44200
Cu129      Cu  0.47834316  0.19953344  0.50617077     0.42000
Cu130      Cu  0.52228954  0.27453266  0.05489546     0.43900
N131        N  0.55207091  0.31653342  0.48785902    -0.34400
N132        N  0.55138195  0.31762992  0.02499972    -0.28600
C133        C  0.57996525  0.35298867  0.03529302    -0.04700
C134        C  0.59732772  0.37419517  0.50363489     0.07500
C135        C  0.57891414  0.35081440  0.47579778     0.01300
H136        H  0.59090009  0.36314737  0.06129984     0.08900
H137        H  0.58637898  0.35874361  0.44888842     0.08000
N138        N  0.49560144  0.23038207  0.07761285    -0.35800
N139        N  0.48138184  0.20480298  0.06011267    -0.28000
C140        C  0.46805619  0.18132753  0.08239447    -0.03200
C141        C  0.47405959  0.19265500  0.11540885     0.05400
C142        C  0.49150010  0.22376471  0.11151382     0.03500
H143        H  0.45528980  0.15800035  0.07504342     0.08600
H144        H  0.50147946  0.24098911  0.13172936     0.07400
N145        N  0.47396335  0.94512734  0.31836330    -0.27000
N146        N  0.47181463  0.92875247  0.30105080    -0.34800
C147        C  0.47424998  0.91783350  0.32335065     0.01300
C148        C  0.47799873  0.92774575  0.35624717     0.07400
C149        C  0.47773116  0.94499970  0.35212540    -0.05700
H150        H  0.47276208  0.90321834  0.31615471     0.08000
H151        H  0.47956629  0.95615828  0.37218911     0.09200
Cu152      Cu  0.46466137  0.92116938  0.24806248     0.44200
Cu153      Cu  0.47056604  0.96591502  0.29555972     0.42000
Cu154      Cu  0.46014388  0.95713795  0.20217014     0.43900
N155        N  0.45942156  0.91831829  0.19495199    -0.34400
N156        N  0.45853248  0.93210829  0.17790115    -0.28600
C157        C  0.45681207  0.92726968  0.14385311    -0.04700
C158        C  0.45641908  0.90942062  0.13940212     0.07500
C159        C  0.45798396  0.90409843  0.17232787     0.01300
H160        H  0.45611291  0.93626393  0.12387107     0.08900
H161        H  0.45886476  0.89155533  0.17936507     0.08000
N162        N  0.46142891  0.98001030  0.23272608    -0.35800
N163        N  0.46534722  0.98332356  0.26662793    -0.28000
C164        C  0.46436562  0.99853550  0.27843574    -0.03200
C165        C  0.45947400  0.00505499  0.25064766     0.05400
C166        C  0.45780371  0.99298948  0.22209729     0.03500
H167        H  0.46607134  0.00349093  0.30539982     0.08600
H168        H  0.45436108  0.99367825  0.19544490     0.07400
N169        N  0.47910593  0.91328048  0.44463134    -0.27000
N170        N  0.47805132  0.89768668  0.42784606    -0.34800
C171        C  0.47845856  0.90123619  0.39372075     0.01300
C172        C  0.47979815  0.91988904  0.38895807     0.07400
C173        C  0.48029939  0.92717935  0.42174214    -0.05700
H174        H  0.47663281  0.88995519  0.37392029     0.08000
H175        H  0.48029231  0.94052611  0.42856153     0.09200
Cu176      Cu  0.47204320  0.86873394  0.45173334     0.44200
Cu177      Cu  0.46455685  0.90101749  0.99826620     0.42000
Cu178      Cu  0.44743684  0.84716559  0.04535972     0.40900
N179        N  0.45616433  0.83365848  0.48128137    -0.34400
N180        N  0.44003823  0.81874339  0.01586419    -0.28600
C181        C  0.42609487  0.79134074  0.02673403    -0.04700
C182        C  0.43169786  0.78727789  0.49783484     0.07500
C183        C  0.44569827  0.80879879  0.47006316     0.01300
H184        H  0.41686225  0.78054077  0.05278266     0.08900
H185        H  0.44565238  0.80483234  0.44333564     0.08000
N186        N  0.45327601  0.87599890  0.06885025    -0.35800
N187        N  0.45901624  0.89535797  0.05146299    -0.28000
C188        C  0.46060287  0.90989274  0.07372882    -0.03200
C189        C  0.45587215  0.89935405  0.10675010     0.05400
C190        C  0.45134863  0.87793200  0.10269388     0.03500
H191        H  0.46523628  0.92714865  0.06640611     0.08600
H192        H  0.44681713  0.86457360  0.12281633     0.07400
C193        C  0.41060209  0.72237883  0.49424940     0.80500
N194        N  0.37350793  0.68931179  0.50197561    -0.77800
C195        C  0.34774783  0.67890325  0.00337698     0.83000
N196        N  0.36657331  0.71066345  0.00474029    -0.77700
C197        C  0.40371981  0.74431237  0.99757434     0.83100
N198        N  0.42235050  0.74632990  0.99000360    -0.79400
N199        N  0.55306074  0.72462536  0.31573408    -0.27000
N200        N  0.54190285  0.72843394  0.29887802    -0.34800
C201        C  0.53603937  0.73584052  0.32165970     0.01300
C202        C  0.54373759  0.73658208  0.35435920     0.07400
C203        C  0.55449866  0.72942608  0.34963743    -0.05700
H204        H  0.52588288  0.73934061  0.31495457     0.08000
H205        H  0.56191626  0.72692090  0.36942126     0.09200
Cu206      Cu  0.53294472  0.72132186  0.24595593     0.44200
Cu207      Cu  0.56389127  0.71093364  0.29275595     0.42000
Cu208      Cu  0.55291445  0.69992351  0.20084832     0.43900
N209        N  0.52655668  0.71266319  0.19303927    -0.34400
N210        N  0.53441939  0.70534180  0.17671789    -0.28600
C211        C  0.52879728  0.70252328  0.14274807    -0.04700
C212        C  0.51678015  0.70831455  0.13736130     0.07500
C213        C  0.51551902  0.71453665  0.16978827     0.01300
H214        H  0.53355310  0.69708456  0.12341267     0.08900
H215        H  0.50798076  0.72080180  0.17597574     0.08000
N216        N  0.56781793  0.69221481  0.22989282    -0.35800
N217        N  0.57146866  0.69576115  0.26376608    -0.28000
C218        C  0.57971710  0.68732192  0.27489751    -0.03200
C219        C  0.58137318  0.67801689  0.24657493     0.05400
C220        C  0.57376892  0.68161022  0.21849817     0.03500
H221        H  0.58327878  0.68710085  0.30173230     0.08600
H222        H  0.57272206  0.67703046  0.19163491     0.07400
N223        N  0.50586941  0.71183531  0.04789889    -0.27000
N224        N  0.49350519  0.71453209  0.06403168    -0.34800
C225        C  0.49514520  0.71337129  0.09827932     0.01300
C226        C  0.50904608  0.70958217  0.10396429     0.07400
C227        C  0.51546258  0.70860777  0.07150022    -0.05700
H228        H  0.48687723  0.71521681  0.11754127     0.08000
H229        H  0.52683302  0.70633500  0.06543308     0.09200
Cu230      Cu  0.47432280  0.71897585  0.03892806     0.44200
Cu231      Cu  0.52413772  0.72960072  0.49552456     0.42000
Cu232      Cu  0.49814750  0.74508222  0.45027510     0.43900
N233        N  0.45351399  0.71983038  0.00834302    -0.34400
N234        N  0.46644014  0.73419000  0.47827501    -0.28600
C235        C  0.45387992  0.73837892  0.46805448    -0.04700
C236        C  0.42523581  0.71791539  0.99021845     0.07500
C237        C  0.43481520  0.71704067  0.01892513     0.01300
H238        H  0.45997551  0.74963568  0.44340121     0.08900
H239        H  0.42841215  0.71426961  0.04552561     0.08000
N240        N  0.52138474  0.74457833  0.42639894    -0.35800
N241        N  0.53071453  0.73880583  0.44300914    -0.28000
C242        C  0.54144276  0.73652335  0.42005047    -0.03200
C243        C  0.53853780  0.74085468  0.38737549     0.05400
C244        C  0.52585961  0.74602245  0.39233892     0.03500
H245        H  0.54906793  0.73038471  0.42662323     0.08600
H246        H  0.51877427  0.74891017  0.37262117     0.07400
N247        N  0.63437367  0.58117445  0.31571047    -0.27000
N248        N  0.63814786  0.57003302  0.29880114    -0.34800
C249        C  0.64311749  0.56176561  0.32158511     0.01300
C250        C  0.64236506  0.56795929  0.35436544     0.07400
C251        C  0.63676430  0.58023016  0.34974621    -0.05700
H252        H  0.64710060  0.55209232  0.31471126     0.08000
H253        H  0.63475035  0.58807470  0.36956415     0.09200
Cu254      Cu  0.63693147  0.56699667  0.24564287     0.44200
Cu255      Cu  0.62674992  0.59768284  0.29184009     0.42000
Cu256      Cu  0.62742603  0.59816101  0.19868578     0.43900
N257        N  0.63719426  0.56886542  0.19241962    -0.34400
N258        N  0.63404128  0.58056055  0.17534170    -0.28600
C259        C  0.63686154  0.57994782  0.14139151    -0.04700
C260        C  0.64210737  0.56733538  0.13694168     0.07500
C261        C  0.64206323  0.56043932  0.16978114     0.01300
H262        H  0.63578938  0.58865165  0.12151714     0.08900
H263        H  0.64604986  0.55078152  0.17680763     0.08000
N264        N  0.62037794  0.61366038  0.22800502    -0.35800
N265        N  0.62017984  0.61348950  0.26207511    -0.28000
C266        C  0.61462245  0.62450669  0.27332752    -0.03200
C267        C  0.61105689  0.63193356  0.24497706     0.05400
C268        C  0.61485479  0.62472082  0.21664353     0.03500
H269        H  0.61251569  0.62615566  0.30021482     0.08600
H270        H  0.61392042  0.62749532  0.18972867     0.07400
N271        N  0.65540994  0.56473791  0.04882280    -0.27000
N272        N  0.65776025  0.55219694  0.06550596    -0.34800
C273        C  0.65347552  0.55121470  0.09945831     0.01300
C274        C  0.64809692  0.56368695  0.10424290     0.07400
C275        C  0.64952433  0.57205821  0.07165134    -0.05700
H276        H  0.65389803  0.54178905  0.11906862     0.08000
H277        H  0.64627851  0.58245385  0.06492224     0.09200
Cu278      Cu  0.66501223  0.53556765  0.04101471     0.44200
Cu279      Cu  0.65293921  0.56410440  0.49581847     0.42000
Cu280      Cu  0.66403214  0.53444712  0.44889782     0.43900
N281        N  0.66883102  0.51739968  0.01085351    -0.34400
N282        N  0.66690655  0.51529750  0.47880492    -0.28600
C283        C  0.67061529  0.50247001  0.46782413    -0.04700
C284        C  0.66864404  0.49020328  0.49623292     0.07500
C285        C  0.66899921  0.50135805  0.02189174     0.01300
H286        H  0.67314327  0.50092998  0.44111657     0.08900
H287        H  0.66714416  0.49582365  0.04860968     0.08000
N288        N  0.65565354  0.55030397  0.42553275    -0.35800
N289        N  0.65138242  0.56092045  0.44262582    -0.28000
C290        C  0.64598890  0.56884027  0.41997447    -0.03200
C291        C  0.64689614  0.56286494  0.38711863     0.05400
C292        C  0.65303699  0.55110866  0.39155685     0.03500
H293        H  0.64170572  0.57820930  0.42697796     0.08600
H294        H  0.65537021  0.54361062  0.37164796     0.07400
C295        C  0.66749593  0.47069930  0.49632926     0.80500
N296        N  0.69949301  0.49006738  0.49274895    -0.77800
C297        C  0.69830039  0.47177060  0.49477857     0.83000
N298        N  0.66512686  0.43418391  0.49959209    -0.77700
C299        C  0.63314326  0.41484144  0.50238459     0.83100
N300        N  0.63436054  0.43313150  0.50122630    -0.79400
C301        C  0.61958945  0.66852199  0.27076281     0.23900
C302        C  0.60378479  0.64400849  0.24513467    -0.24200
C303        C  0.58051892  0.63069645  0.22002964     0.18800
C304        C  0.57298156  0.64144464  0.22068205     0.23800
C305        C  0.58892618  0.66615202  0.24623689    -0.24200
C306        C  0.61231871  0.67953726  0.27128390     0.18700
F307        F  0.62920713  0.70425029  0.29576306    -0.14100
F308        F  0.64313558  0.68288010  0.29476957    -0.16500
F309        F  0.54893270  0.62646872  0.19692678    -0.16500
F310        F  0.56385201  0.60611791  0.19550027    -0.14100
C311        C  0.47518222  0.04759399  0.27594077     0.23900
C312        C  0.45557620  0.02036765  0.25141298    -0.24200
C313        C  0.43207035  0.00779568  0.22766637     0.18800
C314        C  0.42829914  0.02214152  0.22841393     0.23800
C315        C  0.44762430  0.04904589  0.25312022    -0.24200
C316        C  0.47118638  0.06173022  0.27681009     0.18700
F317        F  0.49156285  0.08893541  0.30000357    -0.14100
F318        F  0.49927431  0.06158232  0.29839562    -0.16500
F319        F  0.40483548  0.00884945  0.20556294    -0.16500
F320        F  0.41166672  0.98066144  0.20437424    -0.14100
C321        C  0.99201474  0.53560526  0.22898087     0.23900
C322        C  0.96715487  0.51968263  0.25403164    -0.24200
C323        C  0.95636805  0.49930507  0.28134198     0.18800
C324        C  0.96954141  0.49425917  0.28305299     0.23800
C325        C  0.99375503  0.50949392  0.25749572    -0.24200
C326        C  0.00526760  0.53068778  0.23074665     0.18700
F327        F  0.03041652  0.54780876  0.20682933    -0.14100
F328        F  0.00454842  0.55705861  0.20331430    -0.16500
F329        F  0.95755139  0.47337681  0.30908662    -0.16500
F330        F  0.93200898  0.48309917  0.30577062    -0.14100
N331        N  0.08318119  0.50778112  0.82845812    -0.27000
N332        N  0.10174352  0.51253287  0.81117141    -0.34800
C333        C  0.11899729  0.51748699  0.83365881     0.01300
C334        C  0.11076488  0.51561849  0.86665536     0.07400
C335        C  0.08789319  0.50929192  0.86243068    -0.05700
H336        H  0.13684142  0.52284712  0.82645196     0.08000
H337        H  0.07671053  0.50741993  0.88249092     0.09200
Cu338      Cu  0.10447601  0.51405329  0.75790590     0.44200
Cu339      Cu  0.05555840  0.50339559  0.80526919     0.42000
Cu340      Cu  0.05581691  0.50391032  0.71163716     0.43900
N341        N  0.10368550  0.51512926  0.70467615    -0.34400
N342        N  0.08509125  0.51041323  0.68753028    -0.28600
C343        C  0.09117858  0.51369898  0.65354647    -0.04700
C344        C  0.11499845  0.52117114  0.64925076     0.07500
C345        C  0.12231195  0.52184653  0.68218830     0.01300
H346        H  0.08025072  0.51220977  0.63357895     0.08900
H347        H  0.14041300  0.52751539  0.68939418     0.08000
N348        N  0.03525898  0.50541527  0.74180717    -0.35800
N349        N  0.03518574  0.50529641  0.77589979    -0.28000
C350        C  0.02285567  0.50949794  0.78728907    -0.03200
C351        C  0.01500191  0.51269231  0.75899276     0.05400
C352        C  0.02303065  0.50974094  0.73063751     0.03500
H353        H  0.02141158  0.51179803  0.81418125     0.08600
H354        H  0.02082708  0.51130250  0.70374764     0.07400
N355        N  0.14452971  0.53798767  0.56153446    -0.27000
N356        N  0.16843904  0.54977171  0.57904417    -0.34800
C357        C  0.16102601  0.54473027  0.61293477     0.01300
C358        C  0.13127828  0.52937634  0.61680438     0.07400
C359        C  0.12155262  0.52548989  0.58370055    -0.05700
H360        H  0.17694993  0.55286084  0.63325989     0.08000
H361        H  0.09967035  0.51477176  0.57621503     0.09200
Cu362      Cu  0.21233105  0.57570606  0.55586865     0.44200
Cu363      Cu  0.14421558  0.53964739  0.50837010     0.42000
Cu364      Cu  0.20370740  0.56482055  0.96123258     0.43900
N365        N  0.25694996  0.60699127  0.52585924    -0.34400
N366        N  0.24873238  0.59663589  0.99055291    -0.28600
C367        C  0.28248403  0.62208199  0.97842465    -0.04700
C368        C  0.31409446  0.65149190  0.50803430     0.07500
C369        C  0.29194766  0.63462586  0.53668227     0.01300
H370        H  0.28965863  0.62785647  0.95135692     0.08900
H371        H  0.30119461  0.64362304  0.56320230     0.08000
N372        N  0.16103745  0.54043205  0.93764121    -0.35800
N373        N  0.13686198  0.52840129  0.95479397    -0.28000
C374        C  0.11481663  0.51701057  0.93220676    -0.03200
C375        C  0.12554334  0.52200473  0.89927008     0.05400
C376        C  0.15486691  0.53682657  0.90361299     0.03500
H377        H  0.09304482  0.50651197  0.93929962     0.08600
H378        H  0.17141022  0.54565263  0.88358250     0.07400
N379        N  0.89478204  0.53962673  0.67599732    -0.27000
N380        N  0.87862533  0.53794705  0.69267660    -0.34800
C381        C  0.86557670  0.53768533  0.66970136     0.01300
C382        C  0.87411178  0.53956364  0.63696856     0.07400
C383        C  0.89263023  0.54076383  0.64186100    -0.05700
H384        H  0.85144505  0.53681136  0.67643436     0.08000
H385        H  0.90365076  0.54226210  0.62210947     0.09200
Cu386      Cu  0.87669907  0.53842717  0.74587058     0.44200
Cu387      Cu  0.91913870  0.54045168  0.70056061     0.42000
Cu388      Cu  0.92555835  0.54974265  0.79356015     0.43900
N389        N  0.88295644  0.54459806  0.79895584    -0.34400
N390        N  0.90174603  0.54964129  0.81629069    -0.28600
C391        C  0.90089097  0.55267752  0.85004348    -0.04700
C392        C  0.88049130  0.54930013  0.85415013     0.07500
C393        C  0.86953615  0.54423009  0.82125995     0.01300
H394        H  0.91353899  0.55628683  0.87010342     0.08900
H395        H  0.85271850  0.54013901  0.81406348     0.08000
N396        N  0.94254707  0.54366963  0.76640013    -0.35800
N397        N  0.94050002  0.54042481  0.73248411    -0.28000
C398        C  0.95296795  0.53600186  0.72338849    -0.03200
C399        C  0.96305872  0.53621955  0.75305286     0.05400
C400        C  0.95602095  0.54112677  0.77978536     0.03500
H401        H  0.95371965  0.53196148  0.69719049     0.08600
H402        H  0.96040078  0.54280804  0.80702486     0.07400
N403        N  0.86437495  0.54858821  0.94245728    -0.27000
N404        N  0.84488812  0.54284810  0.92548662    -0.34800
C405        C  0.84827788  0.54305194  0.89142806     0.01300
C406        C  0.87094754  0.54918513  0.88681295     0.07400
C407        C  0.88072339  0.55266024  0.91964333    -0.05700
H408        H  0.83434960  0.53798982  0.87161413     0.08000
H409        H  0.89760720  0.55678891  0.92655246     0.09200
Cu410      Cu  0.81195357  0.53177666  0.94902087     0.44200
Cu411      Cu  0.86602756  0.54793573  0.99576111     0.42000
Cu412      Cu  0.80712746  0.52367258  0.54105327     0.43900
N413        N  0.77633392  0.51453127  0.97908615    -0.34400
N414        N  0.77557592  0.51227347  0.51176987    -0.28600
C415        C  0.74731712  0.49689447  0.52298168    -0.04700
C416        C  0.73008768  0.48974675  0.99653460     0.07500
C417        C  0.75036225  0.50257233  0.96819719     0.01300
H418        H  0.73719026  0.48816180  0.54925584     0.08900
H419        H  0.74535054  0.50143866  0.94151858     0.08000
N420        N  0.83987360  0.53473842  0.56541982    -0.35800
N421        N  0.86176913  0.54352558  0.54866113    -0.28000
C422        C  0.87766046  0.54695951  0.57146510    -0.03200
C423        C  0.86521162  0.54013203  0.60412188     0.05400
C424        C  0.84142836  0.53263315  0.59933106     0.03500
H425        H  0.89652739  0.55353441  0.56470393     0.08600
H426        H  0.82565003  0.52524687  0.61890571     0.07400
N427        N  0.46177140  0.15299777  0.68662231    -0.27000
N428        N  0.46506279  0.17047352  0.70347460    -0.34800
C429        C  0.46851675  0.18629305  0.68053975     0.01300
C430        C  0.46702711  0.17803531  0.64782408     0.07400
C431        C  0.46261235  0.15681341  0.65258385    -0.05700
H432        H  0.47271110  0.20326772  0.68722582     0.08000
H433        H  0.46183661  0.14638824  0.63287134     0.09200
Cu434      Cu  0.46704457  0.17387515  0.75669012     0.44200
Cu435      Cu  0.45997270  0.12791459  0.71013414     0.42000
Cu436      Cu  0.46471171  0.13157936  0.80292126     0.43900
N437        N  0.47057667  0.17495883  0.80979267    -0.34400
N438        N  0.46923780  0.15912594  0.82662079    -0.28600
C439        C  0.47210913  0.16472255  0.86061314    -0.04700
C440        C  0.47563996  0.18522695  0.86531546     0.07500
C441        C  0.47467051  0.19134668  0.83261775     0.01300
H442        H  0.47216224  0.15502708  0.88035174     0.08900
H443        H  0.47663513  0.20643798  0.82586649     0.08000
N444        N  0.46191771  0.10733773  0.77293546    -0.35800
N445        N  0.46030744  0.10618748  0.73891699    -0.28000
C446        C  0.45971873  0.08962873  0.72699568    -0.03200
C447        C  0.46103201  0.07982067  0.75488366     0.05400
C448        C  0.46236286  0.09146033  0.78363143     0.03500
H449        H  0.45931704  0.08592085  0.69994607     0.08600
H450        H  0.46347308  0.08856904  0.81038208     0.07400
N451        N  0.48286110  0.20636743  0.95381857    -0.27000
N452        N  0.49428369  0.23027453  0.93715635    -0.34800
C453        C  0.49276682  0.22595747  0.90304448     0.01300
C454        C  0.48003633  0.19817360  0.89815667     0.07400
C455        C  0.47403530  0.18636255  0.93082947    -0.05700
H456        H  0.50166155  0.24279135  0.88340087     0.08000
H457        H  0.46440458  0.16513731  0.93747523     0.09200
Cu458      Cu  0.51596932  0.27072931  0.96176908     0.44200
Cu459      Cu  0.48114601  0.20307651  0.00694104     0.42000
Cu460      Cu  0.52187313  0.27337802  0.55203321     0.43900
N461        N  0.54816748  0.31576348  0.99109699    -0.34400
N462        N  0.55302880  0.31746161  0.52192098    -0.28600
C463        C  0.58057687  0.35242004  0.53249422    -0.04700
C464        C  0.59494710  0.37406530  0.00651578     0.07500
C465        C  0.57439060  0.34980235  0.97895048     0.01300
H466        H  0.58953457  0.36183213  0.55898595     0.08900
H467        H  0.58044627  0.35711111  0.95189361     0.08000
N468        N  0.49382096  0.22871151  0.57589716    -0.35800
N469        N  0.47893658  0.20240968  0.55926676    -0.28000
C470        C  0.46602257  0.17958932  0.58235949    -0.03200
C471        C  0.47296219  0.19208845  0.61497129     0.05400
C472        C  0.49047483  0.22316093  0.61000081     0.03500
H473        H  0.45338617  0.15623092  0.57584450     0.08600
H474        H  0.50167512  0.24150274  0.62961744     0.07400
N475        N  0.46604289  0.93729148  0.81917731    -0.27000
N476        N  0.46441463  0.92148442  0.80146120    -0.34800
C477        C  0.46468646  0.90850232  0.82357595     0.01300
C478        C  0.46659739  0.91657596  0.85678412     0.07400
C479        C  0.46739634  0.93480297  0.85301133    -0.05700
H480        H  0.46357535  0.89426725  0.81599314     0.08000
H481        H  0.46875629  0.94541692  0.87333745     0.09200
Cu482      Cu  0.46240671  0.91888476  0.74805173     0.44200
Cu483      Cu  0.46616686  0.96139788  0.79665924     0.42000
Cu484      Cu  0.46220961  0.95904960  0.70301186     0.43900
N485        N  0.46342097  0.92211007  0.69480603    -0.34400
N486        N  0.46375457  0.93711773  0.67820788    -0.28600
C487        C  0.46559992  0.93577946  0.64407247    -0.04700
C488        C  0.46630711  0.91897333  0.63907200     0.07500
C489        C  0.46483998  0.91064886  0.67173532     0.01300
H490        H  0.46626430  0.94616466  0.62444182     0.08900
H491        H  0.46509603  0.89749159  0.67834633     0.08000
N492        N  0.46308251  0.98129868  0.73385794    -0.35800
N493        N  0.46499231  0.98265510  0.76789400    -0.28000
C494        C  0.46566375  0.99933851  0.77974806    -0.03200
C495        C  0.46399180  0.00884974  0.75181095     0.05400
C496        C  0.46238474  0.99694273  0.72316495     0.03500
H497        H  0.46663110  0.00359015  0.80676616     0.08600
H498        H  0.46138842  0.99991007  0.69639598     0.07400
N499        N  0.46678237  0.90089566  0.94501608    -0.27000
N500        N  0.46484557  0.88461192  0.92799032    -0.34800
C501        C  0.46500982  0.88806473  0.89389249     0.01300
C502        C  0.46717111  0.90745694  0.88938482     0.07400
C503        C  0.46833763  0.91519291  0.92230806    -0.05700
H504        H  0.46284535  0.87656531  0.87395228     0.08000
H505        H  0.46937213  0.92943085  0.92934515     0.09200
Cu506      Cu  0.45918441  0.85604635  0.95207282     0.44200
Cu507      Cu  0.47594953  0.91295123  0.49766068     0.42000
Cu508      Cu  0.45844078  0.85853853  0.54384006     0.40900
N509        N  0.44567252  0.82298389  0.98217852    -0.34400
N510        N  0.44966650  0.82889506  0.51478412    -0.28600
C511        C  0.43430308  0.80051896  0.52563305    -0.04700
C512        C  0.42351914  0.77826104  0.99873646     0.07500
C513        C  0.43604750  0.79879854  0.97087903     0.01300
H514        H  0.42431177  0.78931791  0.55154908     0.08900
H515        H  0.43543509  0.79448004  0.94406395     0.08000
N516        N  0.46555974  0.88828816  0.56772106    -0.35800
N517        N  0.47117212  0.90766910  0.55077567    -0.28000
C518        C  0.47260822  0.92190624  0.57343661    -0.03200
C519        C  0.46784642  0.91104541  0.60621510     0.05400
C520        C  0.46359543  0.88990858  0.60163190     0.03500
H521        H  0.47656347  0.93865635  0.56650512     0.08600
H522        H  0.45859400  0.87599409  0.62138996     0.07400
C523        C  0.40390693  0.71476528  0.99008239     0.80500
N524        N  0.36650474  0.68100829  0.99636642    -0.77800
C525        C  0.35504011  0.68775710  0.50662429     0.83000
N526        N  0.37407274  0.71964052  0.50486416    -0.77700
C527        C  0.41109098  0.75276239  0.49696822     0.83100
N528        N  0.42921777  0.75399406  0.49091369    -0.79400
N529        N  0.53995410  0.70830587  0.81352469    -0.27000
N530        N  0.52344562  0.70626537  0.79698275    -0.34800
C531        C  0.51289572  0.70871036  0.82000545     0.01300
C532        C  0.52310681  0.71227203  0.85255651     0.07400
C533        C  0.54012826  0.71184095  0.84752274    -0.05700
H534        H  0.49875997  0.70786467  0.81347807     0.08000
H535        H  0.55199484  0.71416840  0.86702916     0.09200
Cu536      Cu  0.51652857  0.70089003  0.74385982     0.44200
Cu537      Cu  0.56185817  0.70664094  0.78920040     0.42000
Cu538      Cu  0.55917740  0.70424505  0.69631969     0.43900
N539        N  0.51741596  0.70020647  0.69044687    -0.34400
N540        N  0.53373005  0.70223064  0.67333661    -0.28600
C541        C  0.53179388  0.70374548  0.63939155    -0.04700
C542        C  0.51337339  0.70262037  0.63487531     0.07500
C543        C  0.50447496  0.70021799  0.66772090     0.01300
H544        H  0.54361067  0.70622888  0.61956721     0.08900
H545        H  0.49078864  0.69981269  0.67468473     0.08000
N546        N  0.57937464  0.70221269  0.72522639    -0.35800
N547        N  0.58011302  0.70280074  0.75927339    -0.28000
C548        C  0.59157793  0.69765870  0.77025961    -0.03200
C549        C  0.59823206  0.69346444  0.74170839     0.05400
C550        C  0.59038185  0.69673438  0.71357920     0.03500
H551        H  0.59290850  0.69507876  0.79707107     0.08600
H552        H  0.59149323  0.69425860  0.68661301     0.07400
N553        N  0.51075242  0.71666585  0.54730900    -0.27000
N554        N  0.48975874  0.70941338  0.56305085    -0.34800
C555        C  0.48707711  0.70292661  0.59665270     0.01300
C556        C  0.50719681  0.70605898  0.60211600     0.07400
C557        C  0.52178229  0.71473445  0.57032068    -0.05700
H558        H  0.47192994  0.69676777  0.61566520     0.08000
H559        H  0.53962477  0.71990350  0.56437927     0.09200
Cu560      Cu  0.46714784  0.71019853  0.53811976     0.44200
Cu561      Cu  0.51024628  0.71383892  0.99456764     0.42000
Cu562      Cu  0.47970100  0.72380477  0.94621367     0.43900
N563        N  0.45312758  0.71901452  0.50939157    -0.34400
N564        N  0.45588486  0.72216679  0.97432279    -0.28600
C565        C  0.43896656  0.72122311  0.96230559    -0.04700
C566        C  0.43112742  0.72451908  0.49378509     0.07500
C567        C  0.43110998  0.71233018  0.51945646     0.01300
H568        H  0.43618636  0.72204274  0.93533383     0.08900
H569        H  0.41675136  0.70017810  0.54397376     0.08000
N570        N  0.50036527  0.72027596  0.92369831    -0.35800
N571        N  0.51162017  0.71673222  0.94105366    -0.28000
C572        C  0.52213588  0.71400332  0.91846831    -0.03200
C573        C  0.51692796  0.71563579  0.88543556     0.05400
C574        C  0.50316114  0.71965340  0.88974246     0.03500
H575        H  0.53199201  0.71024089  0.92558919     0.08600
H576        H  0.49522405  0.72146690  0.86970703     0.07400
N577        N  0.65249544  0.59879679  0.81577454    -0.27000
N578        N  0.65829802  0.58957496  0.79895550    -0.34800
C579        C  0.66224077  0.58038302  0.82182342     0.01300
C580        C  0.65877475  0.58405532  0.85450864     0.07400
C581        C  0.65263612  0.59577818  0.84982441    -0.05700
H582        H  0.66709921  0.57153718  0.81505586     0.08000
H583        H  0.64833435  0.60146021  0.86957782     0.09200
Cu584      Cu  0.65993679  0.58895289  0.74591149     0.44200
Cu585      Cu  0.64445966  0.61484206  0.79210165     0.42000
Cu586      Cu  0.64550197  0.61499623  0.69909995     0.43900
N587        N  0.65826955  0.58874175  0.69275240    -0.34400
N588        N  0.65301810  0.59842175  0.67566340    -0.28600
C589        C  0.65263809  0.59480348  0.64170617    -0.04700
C590        C  0.65777864  0.58210886  0.63726427     0.07500
C591        C  0.66126461  0.57853957  0.67010837     0.01300
H592        H  0.64833708  0.60044564  0.62183580     0.08900
H593        H  0.66528565  0.56891048  0.67710188     0.08000
N594        N  0.63852273  0.63060656  0.72779588    -0.35800
N595        N  0.63823009  0.63067856  0.76184006    -0.28000
C596        C  0.63301757  0.64212623  0.77244970    -0.03200
C597        C  0.62977791  0.64952416  0.74361141     0.05400
C598        C  0.63343344  0.64192017  0.71575661     0.03500
H599        H  0.63090131  0.64405364  0.79917595     0.08600
H600        H  0.63272119  0.64460732  0.68868855     0.07400
N601        N  0.65567587  0.56492165  0.54898741    -0.27000
N602        N  0.65752986  0.55200467  0.56595290    -0.34800
C603        C  0.65910852  0.55658269  0.59995550     0.01300
C604        C  0.65797715  0.57299727  0.60452189     0.07400
C605        C  0.65582352  0.57793248  0.57174256    -0.05700
H606        H  0.66054466  0.54818699  0.61978326     0.08000
H607        H  0.65428938  0.58990007  0.56487480     0.09200
Cu608      Cu  0.65772544  0.52878120  0.54210089     0.44200
Cu609      Cu  0.65899625  0.57005578  0.99580261     0.42000
Cu610      Cu  0.66736906  0.53808908  0.94778421     0.43900
N611        N  0.66285721  0.51167984  0.51269224    -0.34400
N612        N  0.66983661  0.51842783  0.97677733    -0.28600
C613        C  0.67088555  0.50326507  0.96514510    -0.04700
C614        C  0.67060031  0.49237366  0.99337181     0.07500
C615        C  0.66333923  0.49599199  0.52419276     0.01300
H616        H  0.67058331  0.49935624  0.93824571     0.08900
H617        H  0.65980121  0.48908722  0.55084297     0.08000
N618        N  0.66396550  0.55868602  0.92529196    -0.35800
N619        N  0.66092655  0.57039550  0.94261120    -0.28000
C620        C  0.65876918  0.58145022  0.92010337    -0.03200
C621        C  0.66060832  0.57642451  0.88719028     0.05400
C622        C  0.66391314  0.56200028  0.89138176     0.03500
H623        H  0.65588439  0.59212814  0.92722973     0.08600
H624        H  0.66579292  0.55413409  0.87136086     0.07400
C625        C  0.66752366  0.47121598  0.99333444     0.80500
N626        N  0.69880191  0.48935127  0.99142131    -0.77800
C627        C  0.69640491  0.47017760  0.99658893     0.83000
N628        N  0.66277823  0.43294654  0.00336822    -0.77700
C629        C  0.63140678  0.41468939  0.00416146     0.83100
N630        N  0.63380222  0.43385366  0.99937482    -0.79400
C631        C  0.63803884  0.68615920  0.76787269     0.23900
C632        C  0.62254779  0.66156689  0.74270686    -0.24200
C633        C  0.59959490  0.64810372  0.71686844     0.18800
C634        C  0.59203711  0.65878949  0.71631940     0.23800
C635        C  0.60736801  0.68326149  0.74156748    -0.24200
C636        C  0.63051121  0.69690343  0.76731108     0.18700
F637        F  0.64654118  0.72128870  0.79157301    -0.14100
F638        F  0.66124498  0.70058888  0.79256610    -0.16500
F639        F  0.56825493  0.64368717  0.69194499    -0.16500
F640        F  0.58303026  0.62323504  0.69292042    -0.14100
C641        C  0.48393576  0.05447531  0.77750494     0.23900
C642        C  0.46356289  0.02731768  0.75237469    -0.24200
C643        C  0.44271682  0.01792577  0.72779013     0.18800
C644        C  0.44195664  0.03503067  0.72855664     0.23800
C645        C  0.46192550  0.06180398  0.75398616    -0.24200
C646        C  0.48305153  0.07147108  0.77834942     0.18700
F647        F  0.50400907  0.09839400  0.80230193    -0.14100
F648        F  0.50584198  0.06564288  0.80058750    -0.16500
F649        F  0.42064364  0.02441409  0.70502055    -0.16500
F650        F  0.42198231  0.99125120  0.70360804    -0.14100
C651        C  0.00299278  0.54800177  0.73118446     0.23900
C652        C  0.97742207  0.53137346  0.75566383    -0.24200
C653        C  0.96565258  0.51002285  0.78245564     0.18800
C654        C  0.97829819  0.50441391  0.78399459     0.23800
C655        C  0.00297467  0.52007557  0.75876308    -0.24200
C656        C  0.01579096  0.54260731  0.73281558     0.18700
F657        F  0.04165460  0.56043882  0.70949191    -0.14100
F658        F  0.01647920  0.57041955  0.70612422    -0.16500
F659        F  0.96525368  0.48250688  0.80945012    -0.16500
F660        F  0.94070011  0.49326665  0.80639542    -0.14100
loop_ 
_geom_bond_atom_site_label_1 
_geom_bond_atom_site_label_2 
_geom_bond_distance 
_geom_bond_site_symmetry_2 
_ccdc_geom_bond_type 
N1            N2   1.323       .  A
N1            C5   1.344       .  A
N1           Cu9   2.073       .  S
N2            C3   1.345       .  A
N2           Cu8   2.071       .  S
C3            C4   1.382       .  A
C3            H6   1.082       .  S
C4            C5   1.383       .  A
C4           C45   1.469       .  S
C5            H7   1.082       .  S
Cu8          N11   2.071       .  S
Cu9          N19   2.074       .  S
Cu10         N12   2.080       .  S
Cu10         N18   2.080       .  S
N11          N12   1.322       .  A
N11          C15   1.344       .  A
N12          C13   1.347       .  A
C13          C14   1.385       .  A
C13          H16   1.082       .  S
C14          C15   1.382       .  A
C14          C28   1.473       .  S
C15          H17   1.082       .  S
N18          N19   1.322       .  A
N18          C22   1.344       .  A
N19          C20   1.346       .  A
C20          C21   1.386       .  A
C20          H23   1.082       .  S
C21          C22   1.386       .  A
C21         C325   1.484   1_455  S
C22          H24   1.082       .  S
N25          N26   1.322       .  A
N25          C29   1.345       .  A
N25         Cu33   2.071       .  S
N26          C27   1.346       .  A
N26         Cu32   2.078       .  S
C27          C28   1.385       .  A
C27          H30   1.082       .  S
C28          C29   1.383       .  A
C29          H31   1.082       .  S
Cu32         N35   2.079       .  S
Cu33        N373   2.071   1_554  S
Cu34         N36   2.072       .  S
Cu34         N42   2.072       .  S
N35         N366   1.323   1_554  A
N35          C39   1.346       .  A
N36         N365   1.323       .  A
N36          C37   1.344       .  A
C37         C368   1.380       .  A
C37          H40   1.082       .  S
C38          C39   1.382       .  A
C38         C367   1.381   1_554  A
C38         C195   1.463       .  S
C39          H41   1.082       .  S
N42          N43   1.322       .  A
N42          C46   1.346       .  A
N43          C44   1.343       .  A
N43        Cu363   2.067       .  S
C44          C45   1.381       .  A
C44          H47   1.082       .  S
C45          C46   1.384       .  A
C46          H48   1.082       .  S
N49          N50   1.323       .  A
N49          C53   1.347       .  A
N49         Cu57   2.086       .  S
N50          C51   1.343       .  A
N50         Cu56   2.068       .  S
C51          C52   1.381       .  A
C51          H54   1.082       .  S
C52          C53   1.385       .  A
C52          C93   1.471       .  S
C53          H55   1.082       .  S
Cu56         N59   2.067       .  S
Cu57         N67   2.087       .  S
Cu58         N60   2.064       .  S
Cu58         N66   2.064       .  S
N59          N60   1.321       .  A
N59          C63   1.344       .  A
N60          C61   1.343       .  A
C61          C62   1.382       .  A
C61          H64   1.082       .  S
C62          C63   1.383       .  A
C62          C76   1.468       .  S
C63          H65   1.082       .  S
N66          N67   1.322       .  A
N66          C70   1.344       .  A
N67          C68   1.346       .  A
C68          C69   1.388       .  A
C68          H71   1.082       .  S
C69          C70   1.383       .  A
C69         C322   1.482       .  S
C70          H72   1.082       .  S
N73          N74   1.323       .  A
N73          C77   1.344       .  A
N73         Cu81   2.074       .  S
N74          C75   1.344       .  A
N74         Cu80   2.068       .  S
C75          C76   1.381       .  A
C75          H78   1.082       .  S
C76          C77   1.382       .  A
C77          H79   1.082       .  S
Cu80         N83   2.067       .  S
Cu81        N421   2.074       .  S
Cu82         N84   2.066       .  S
Cu82         N90   2.067       .  S
N83         N414   1.322       .  A
N83          C87   1.346       .  A
N84         N413   1.322   1_554  A
N84          C85   1.343       .  A
C85         C416   1.378   1_554  A
C85          H88   1.082       .  S
C86          C87   1.380       .  A
C86         C415   1.378       .  A
C86         C297   1.457       .  S
C87          H89   1.082       .  S
N90          N91   1.321       .  A
N90          C94   1.344       .  A
N91          C92   1.346       .  A
N91        Cu411   2.074   1_554  S
C92          C93   1.384       .  A
C92          H95   1.082       .  S
C93          C94   1.383       .  A
C94          H96   1.082       .  S
N97          N98   1.322       .  A
N97         C101   1.343       .  A
N97        Cu105   2.062       .  S
N98          C99   1.343       .  A
N98        Cu104   2.063       .  S
C99         C100   1.381       .  A
C99         H102   1.082       .  S
C100        C101   1.380       .  A
C100        C141   1.463       .  S
C101        H103   1.082       .  S
Cu104       N107   2.064       .  S
Cu105       N115   2.063       .  S
Cu106       N108   2.064       .  S
Cu106       N114   2.065       .  S
N107        N108   1.322       .  A
N107        C111   1.343       .  A
N108        C109   1.344       .  A
C109        C110   1.381       .  A
C109        H112   1.082       .  S
C110        C111   1.381       .  A
C110        C124   1.464       .  S
C111        H113   1.082       .  S
N114        N115   1.321       .  A
N114        C118   1.343       .  A
N115        C116   1.343       .  A
C116        C117   1.383       .  A
C116        H119   1.082       .  S
C117        C118   1.384       .  A
C117        C315   1.476       .  S
C118        H120   1.082       .  S
N121        N122   1.321       .  A
N121        C125   1.344       .  A
N121       Cu129   2.067       .  S
N122        C123   1.343       .  A
N122       Cu128   2.059       .  S
C123        C124   1.380       .  A
C123        H126   1.082       .  S
C124        C125   1.382       .  A
C125        H127   1.082       .  S
Cu128       N131   2.059       .  S
Cu129       N469   2.067       .  S
Cu130       N132   2.060       .  S
Cu130       N138   2.060       .  S
N131        N462   1.321       .  A
N131        C135   1.342       .  A
N132        N461   1.322   1_554  A
N132        C133   1.343       .  A
C133        C464   1.378       .  A
C133        H136   1.082       .  S
C134        C135   1.378       .  A
C134        C463   1.378       .  A
C134        C299   1.452       .  S
C135        H137   1.082       .  S
N138        N139   1.322       .  A
N138        C142   1.343       .  A
N139        C140   1.343       .  A
N139       Cu459   2.065       .  S
C140        C141   1.381       .  A
C140        H143   1.082       .  S
C141        C142   1.381       .  A
C142        H144   1.082       .  S
N145        N146   1.322       .  A
N145        C149   1.344       .  A
N145       Cu153   2.072       .  S
N146        C147   1.346       .  A
N146       Cu152   2.073       .  S
C147        C148   1.383       .  A
C147        H150   1.082       .  S
C148        C149   1.383       .  A
C148        C172   1.471       .  S
C149        H151   1.082       .  S
Cu152       N155   2.073       .  S
Cu153       N163   2.072       .  S
Cu154       N156   2.080       .  S
Cu154       N162   2.079       .  S
N155        N156   1.322       .  A
N155        C159   1.344       .  A
N156        C157   1.347       .  A
C157        C158   1.385       .  A
C157        H160   1.082       .  S
C158        C159   1.382       .  A
C158        C189   1.474       .  S
C159        H161   1.082       .  S
N162        N163   1.322       .  A
N162        C166   1.344       .  A
N163        C164   1.345       .  A
C164        C165   1.386   1_565  A
C164        H167   1.082   1_565  S
C165        C166   1.386   1_545  A
C165        C312   1.482       .  S
C166        H168   1.082       .  S
N169        N170   1.323       .  A
N169        C173   1.343       .  A
N169       Cu507   2.069       .  S
N170        C171   1.347       .  A
N170       Cu176   2.083       .  S
C171        C172   1.384       .  A
C171        H174   1.082       .  S
C172        C173   1.381       .  A
C173        H175   1.082       .  S
Cu176       N179   2.082       .  S
Cu177       N187   2.073   1_556  S
Cu177       N499   2.073       .  S
Cu178       N180   2.079       .  S
Cu178       N186   2.079       .  S
N179        N510   1.322       .  A
N179        C183   1.348       .  A
N180        N509   1.323   1_554  A
N180        C181   1.345       .  A
C181        C512   1.381   1_554  A
C181        H184   1.082       .  S
C182        C183   1.383       .  A
C182        C511   1.381       .  A
C182        C527   1.467       .  S
C183        H185   1.082       .  S
N186        N187   1.322       .  A
N186        C190   1.345       .  A
N187        C188   1.346       .  A
C188        C189   1.384       .  A
C188        H191   1.082       .  S
C189        C190   1.385       .  A
C190        H192   1.082       .  S
C193        N194   1.359       .  A
C193        N528   1.361       .  A
C193        C566   1.465       .  S
N194        C525   1.356       .  A
C195        N196   1.357       .  A
C195        N524   1.357   1_554  A
N196        C197   1.357   1_554  A
C197        N198   1.357       .  A
C197        C512   1.464       .  S
N198        C523   1.359       .  A
N199        N200   1.323       .  A
N199        C203   1.345       .  A
N199       Cu207   2.076       .  S
N200        C201   1.346       .  A
N200       Cu206   2.078       .  S
C201        C202   1.383       .  A
C201        H204   1.082       .  S
C202        C203   1.383       .  A
C202        C243   1.471       .  S
C203        H205   1.082       .  S
Cu206       N209   2.078       .  S
Cu207       N217   2.075       .  S
Cu208       N210   2.066       .  S
Cu208       N216   2.065       .  S
N209        N210   1.322       .  A
N209        C213   1.346       .  A
N210        C211   1.343       .  A
C211        C212   1.381       .  A
C211        H214   1.082       .  S
C212        C213   1.385       .  A
C212        C226   1.470       .  S
C213        H215   1.082       .  S
N216        N217   1.320       .  A
N216        C220   1.343       .  A
N217        C218   1.345       .  A
C218        C219   1.389       .  A
C218        H221   1.081       .  S
C219        C220   1.386       .  A
C219        C305   1.485       .  S
C220        H222   1.081       .  S
N223        N224   1.322       .  A
N223        C227   1.345       .  A
N223       Cu561   2.080   1_554  S
N224        C225   1.345       .  A
N224       Cu230   2.068       .  S
C225        C226   1.382       .  A
C225        H228   1.082       .  S
C226        C227   1.384       .  A
C227        H229   1.082       .  S
Cu230       N233   2.068       .  S
Cu231       N241   2.067       .  S
Cu231       N553   2.066       .  S
Cu232       N234   2.080       .  S
Cu232       N240   2.080       .  S
N233        N564   1.322   1_554  A
N233        C237   1.343       .  A
N234        N563   1.323       .  A
N234        C235   1.348       .  A
C235        C566   1.383       .  A
C235        H238   1.082       .  S
C236        C237   1.379   1_556  A
C236        C565   1.381       .  A
C236        C523   1.460       .  S
C237        H239   1.082       .  S
N240        N241   1.322       .  A
N240        C244   1.346       .  A
N241        C242   1.344       .  A
C242        C243   1.382       .  A
C242        H245   1.082       .  S
C243        C244   1.384       .  A
C244        H246   1.082       .  S
N247        N248   1.322       .  A
N247        C251   1.344       .  A
N247       Cu255   2.068       .  S
N248        C249   1.343       .  A
N248       Cu254   2.068       .  S
C249        C250   1.382       .  A
C249        H252   1.082       .  S
C250        C251   1.382       .  A
C250        C291   1.467       .  S
C251        H253   1.082       .  S
Cu254       N257   2.068       .  S
Cu255       N265   2.068       .  S
Cu256       N258   2.070       .  S
Cu256       N264   2.070       .  S
N257        N258   1.322       .  A
N257        C261   1.345       .  A
N258        C259   1.343       .  A
C259        C260   1.382       .  A
C259        H262   1.082       .  S
C260        C261   1.382       .  A
C260        C274   1.468       .  S
C261        H263   1.082       .  S
N264        N265   1.321       .  A
N264        C268   1.345       .  A
N265        C266   1.343       .  A
C266        C267   1.384       .  A
C266        H269   1.082       .  S
C267        C268   1.386       .  A
C267        C302   1.480       .  S
C268        H270   1.082       .  S
N271        N272   1.321       .  A
N271        C275   1.343       .  A
N271       Cu609   2.067   1_554  S
N272        C273   1.344       .  A
N272       Cu278   2.065       .  S
C273        C274   1.382       .  A
C273        H276   1.082       .  S
C274        C275   1.382       .  A
C275        H277   1.082       .  S
Cu278       N281   2.064       .  S
Cu279       N289   2.068       .  S
Cu279       N601   2.068       .  S
Cu280       N282   2.064       .  S
Cu280       N288   2.065       .  S
N281        N612   1.322   1_554  A
N281        C285   1.342       .  A
N282        N611   1.322       .  A
N282        C283   1.344       .  A
C283        C284   1.378       .  A
C283        H286   1.082       .  S
C284        C615   1.377       .  A
C284        C295   1.452       .  S
C285        C614   1.377   1_554  A
C285        H287   1.082       .  S
N288        N289   1.322       .  A
N288        C292   1.343       .  A
N289        C290   1.344       .  A
C290        C291   1.382       .  A
C290        H293   1.082       .  S
C291        C292   1.381       .  A
C292        H294   1.082       .  S
C295        N296   1.357       .  A
C295        N300   1.355       .  A
N296        C297   1.357       .  A
C297        N298   1.355       .  A
N298        C299   1.355       .  A
C299        N300   1.353       .  A
C301        C302   1.406       .  A
C301        C306   1.399       .  A
C301        F308   1.358       .  S
C302        C303   1.406       .  A
C303        C304   1.398       .  A
C303        F310   1.358       .  S
C304        C305   1.410       .  A
C304        F309   1.357       .  S
C305        C306   1.408       .  A
C306        F307   1.357       .  S
C311        C312   1.408       .  A
C311        C316   1.398       .  A
C311        F318   1.357       .  S
C312        C313   1.408       .  A
C313        C314   1.398       .  A
C313        F320   1.357   1_545  S
C314        C315   1.405       .  A
C314        F319   1.358       .  S
C315        C316   1.406       .  A
C316        F317   1.358       .  S
C321        C322   1.405       .  A
C321        C326   1.398   1_655  A
C321        F328   1.357   1_655  S
C322        C323   1.409       .  A
C323        C324   1.401       .  A
C323        F330   1.358       .  S
C324        C325   1.408       .  A
C324        F329   1.358       .  S
C325        C326   1.408   1_655  A
C326        F327   1.357       .  S
N331        N332   1.322       .  A
N331        C335   1.344       .  A
N331       Cu339   2.075       .  S
N332        C333   1.345       .  A
N332       Cu338   2.069       .  S
C333        C334   1.382       .  A
C333        H336   1.082       .  S
C334        C335   1.383       .  A
C334        C375   1.470       .  S
C335        H337   1.082       .  S
Cu338       N341   2.069       .  S
Cu339       N349   2.075       .  S
Cu340       N342   2.083       .  S
Cu340       N348   2.083       .  S
N341        N342   1.322       .  A
N341        C345   1.345       .  A
N342        C343   1.347       .  A
C343        C344   1.386       .  A
C343        H346   1.082       .  S
C344        C345   1.382       .  A
C344        C358   1.473       .  S
C345        H347   1.082       .  S
N348        N349   1.322       .  A
N348        C352   1.344       .  A
N349        C350   1.347       .  A
C350        C351   1.386       .  A
C350        H353   1.082       .  S
C351        C352   1.387       .  A
C351        C655   1.485       .  S
C352        H354   1.081       .  S
N355        N356   1.322       .  A
N355        C359   1.344       .  A
N355       Cu363   2.067       .  S
N356        C357   1.347       .  A
N356       Cu362   2.084       .  S
C357        C358   1.386       .  A
C357        H360   1.082       .  S
C358        C359   1.381       .  A
C359        H361   1.082       .  S
Cu362       N365   2.084       .  S
Cu364       N366   2.074       .  S
Cu364       N372   2.075       .  S
N365        C369   1.348       .  A
N366        C367   1.345       .  A
C367        H370   1.082       .  S
C368        C369   1.383       .  A
C368        C525   1.464       .  S
C369        H371   1.082       .  S
N372        N373   1.322       .  A
N372        C376   1.346       .  A
N373        C374   1.344       .  A
C374        C375   1.381       .  A
C374        H377   1.082       .  S
C375        C376   1.384       .  A
C376        H378   1.082       .  S
N379        N380   1.323       .  A
N379        C383   1.347       .  A
N379       Cu387   2.086       .  S
N380        C381   1.344       .  A
N380       Cu386   2.071       .  S
C381        C382   1.381       .  A
C381        H384   1.082       .  S
C382        C383   1.385       .  A
C382        C423   1.472       .  S
C383        H385   1.082       .  S
Cu386       N389   2.071       .  S
Cu387       N397   2.086       .  S
Cu388       N390   2.063       .  S
Cu388       N396   2.063       .  S
N389        N390   1.321       .  A
N389        C393   1.345       .  A
N390        C391   1.343       .  A
C391        C392   1.382       .  A
C391        H394   1.082       .  S
C392        C393   1.384       .  A
C392        C406   1.469       .  S
C393        H395   1.082       .  S
N396        N397   1.322       .  A
N396        C400   1.344       .  A
N397        C398   1.346       .  A
C398        C399   1.388       .  A
C398        H401   1.082       .  S
C399        C400   1.382       .  A
C399        C652   1.481       .  S
C400        H402   1.082       .  S
N403        N404   1.323       .  A
N403        C407   1.344       .  A
N403       Cu411   2.074       .  S
N404        C405   1.345       .  A
N404       Cu410   2.069       .  S
C405        C406   1.382       .  A
C405        H408   1.082       .  S
C406        C407   1.382       .  A
C407        H409   1.082       .  S
Cu410       N413   2.069       .  S
Cu412       N414   2.069       .  S
Cu412       N420   2.069       .  S
N413        C417   1.345       .  A
N414        C415   1.343       .  A
C415        H418   1.082       .  S
C416        C417   1.380       .  A
C416        C627   1.457       .  S
C417        H419   1.082       .  S
N420        N421   1.321       .  A
N420        C424   1.344       .  A
N421        C422   1.346       .  A
C422        C423   1.384       .  A
C422        H425   1.082       .  S
C423        C424   1.383       .  A
C424        H426   1.082       .  S
N427        N428   1.322       .  A
N427        C431   1.342       .  A
N427       Cu435   2.058       .  S
N428        C429   1.344       .  A
N428       Cu434   2.069       .  S
C429        C430   1.382       .  A
C429        H432   1.082       .  S
C430        C431   1.379       .  A
C430        C471   1.463       .  S
C431        H433   1.082       .  S
Cu434       N437   2.069       .  S
Cu435       N445   2.058       .  S
Cu436       N438   2.070       .  S
Cu436       N444   2.070       .  S
N437        N438   1.323       .  A
N437        C441   1.344       .  A
N438        C439   1.344       .  A
C439        C440   1.381       .  A
C439        H442   1.082       .  S
C440        C441   1.381       .  A
C440        C454   1.467       .  S
C441        H443   1.082       .  S
N444        N445   1.321       .  A
N444        C448   1.344       .  A
N445        C446   1.342       .  A
C446        C447   1.383       .  A
C446        H449   1.082       .  S
C447        C448   1.386       .  A
C447        C645   1.478       .  S
C448        H450   1.082       .  S
N451        N452   1.321       .  A
N451        C455   1.343       .  A
N451       Cu459   2.065   1_556  S
N452        C453   1.344       .  A
N452       Cu458   2.066       .  S
C453        C454   1.382       .  A
C453        H456   1.082       .  S
C454        C455   1.381       .  A
C455        H457   1.082       .  S
Cu458       N461   2.065       .  S
Cu460       N462   2.060       .  S
Cu460       N468   2.061       .  S
N461        C465   1.342       .  A
N462        C463   1.344       .  A
C463        H466   1.082       .  S
C464        C465   1.378   1_554  A
C464        C629   1.454       .  S
C465        H467   1.082       .  S
N468        N469   1.322       .  A
N468        C472   1.343       .  A
N469        C470   1.343       .  A
C470        C471   1.381       .  A
C470        H473   1.082       .  S
C471        C472   1.380       .  A
C472        H474   1.082       .  S
N475        N476   1.322       .  A
N475        C479   1.344       .  A
N475       Cu483   2.076       .  S
N476        C477   1.346       .  A
N476       Cu482   2.073       .  S
C477        C478   1.384       .  A
C477        H480   1.082       .  S
C478        C479   1.384       .  A
C478        C502   1.473       .  S
C479        H481   1.082       .  S
Cu482       N485   2.073       .  S
Cu483       N493   2.076       .  S
Cu484       N486   2.070       .  S
Cu484       N492   2.069       .  S
N485        N486   1.322       .  A
N485        C489   1.343       .  A
N486        C487   1.346       .  A
C487        C488   1.384       .  A
C487        H490   1.082       .  S
C488        C489   1.382       .  A
C488        C519   1.470       .  S
C489        H491   1.082       .  S
N492        N493   1.322       .  A
N492        C496   1.343       .  A
N493        C494   1.345       .  A
C494        C495   1.386   1_565  A
C494        H497   1.082   1_565  S
C495        C496   1.384   1_545  A
C495        C642   1.481       .  S
C496        H498   1.082       .  S
N499        N500   1.323       .  A
N499        C503   1.344       .  A
N500        C501   1.347       .  A
N500       Cu506   2.079       .  S
C501        C502   1.385       .  A
C501        H504   1.082       .  S
C502        C503   1.382       .  A
C503        H505   1.082       .  S
Cu506       N509   2.078       .  S
Cu507       N517   2.068       .  S
Cu508       N510   2.076       .  S
Cu508       N516   2.075       .  S
N509        C513   1.347       .  A
N510        C511   1.345       .  A
C511        H514   1.082       .  S
C512        C513   1.381       .  A
C513        H515   1.082       .  S
N516        N517   1.322       .  A
N516        C520   1.344       .  A
N517        C518   1.346       .  A
C518        C519   1.383       .  A
C518        H521   1.082       .  S
C519        C520   1.383       .  A
C520        H522   1.082       .  S
C523        N524   1.359       .  A
C525        N526   1.357       .  A
N526        C527   1.358       .  A
C527        N528   1.360       .  A
N529        N530   1.322       .  A
N529        C533   1.345       .  A
N529       Cu537   2.068       .  S
N530        C531   1.344       .  A
N530       Cu536   2.075       .  S
C531        C532   1.383       .  A
C531        H534   1.082       .  S
C532        C533   1.382       .  A
C532        C573   1.470       .  S
C533        H535   1.082       .  S
Cu536       N539   2.075       .  S
Cu537       N547   2.067       .  S
Cu538       N540   2.062       .  S
Cu538       N546   2.061       .  S
N539        N540   1.322       .  A
N539        C543   1.346       .  A
N540        C541   1.342       .  A
C541        C542   1.380       .  A
C541        H544   1.082       .  S
C542        C543   1.383       .  A
C542        C556   1.468       .  S
C543        H545   1.082       .  S
N546        N547   1.321       .  A
N546        C550   1.342       .  A
N547        C548   1.343       .  A
C548        C549   1.384       .  A
C548        H551   1.082       .  S
C549        C550   1.384       .  A
C549        C635   1.477       .  S
C550        H552   1.082       .  S
N553        N554   1.322       .  A
N553        C557   1.343       .  A
N554        C555   1.345       .  A
N554       Cu560   2.071       .  S
C555        C556   1.383       .  A
C555        H558   1.082       .  S
C556        C557   1.382       .  A
C557        H559   1.082       .  S
Cu560       N563   2.071       .  S
Cu561       N571   2.080       .  S
Cu562       N564   2.070       .  S
Cu562       N570   2.069       .  S
N563        C567   1.343       .  A
N564        C565   1.347       .  A
C565        H568   1.082       .  S
C566        C567   1.380       .  A
C567        H569   1.082       .  S
N570        N571   1.323       .  A
N570        C574   1.343       .  A
N571        C572   1.347       .  A
C572        C573   1.384       .  A
C572        H575   1.082       .  S
C573        C574   1.381       .  A
C574        H576   1.082       .  S
N577        N578   1.322       .  A
N577        C581   1.343       .  A
N577       Cu585   2.060       .  S
N578        C579   1.342       .  A
N578       Cu584   2.064       .  S
C579        C580   1.380       .  A
C579        H582   1.082       .  S
C580        C581   1.380       .  A
C580        C621   1.462       .  S
C581        H583   1.082       .  S
Cu584       N587   2.065       .  S
Cu585       N595   2.060       .  S
Cu586       N588   2.060       .  S
Cu586       N594   2.060       .  S
N587        N588   1.321       .  A
N587        C591   1.344       .  A
N588        C589   1.342       .  A
C589        C590   1.380       .  A
C589        H592   1.082       .  S
C590        C591   1.382       .  A
C590        C604   1.465       .  S
C591        H593   1.082       .  S
N594        N595   1.321       .  A
N594        C598   1.341       .  A
N595        C596   1.343       .  A
C596        C597   1.384       .  A
C596        H599   1.082       .  S
C597        C598   1.383       .  A
C597        C632   1.475       .  S
C598        H600   1.082       .  S
N601        N602   1.321       .  A
N601        C605   1.343       .  A
N602        C603   1.343       .  A
N602       Cu608   2.058       .  S
C603        C604   1.381       .  A
C603        H606   1.082       .  S
C604        C605   1.382       .  A
C605        H607   1.082       .  S
Cu608       N611   2.058       .  S
Cu609       N619   2.067       .  S
Cu610       N612   2.053       .  S
Cu610       N618   2.054       .  S
N611        C615   1.342       .  A
N612        C613   1.343       .  A
C613        C614   1.376       .  A
C613        H616   1.082       .  S
C614        C625   1.451       .  S
C615        H617   1.082       .  S
N618        N619   1.322       .  A
N618        C622   1.341       .  A
N619        C620   1.344       .  A
C620        C621   1.382       .  A
C620        H623   1.082       .  S
C621        C622   1.379       .  A
C622        H624   1.082       .  S
C625        N626   1.356       .  A
C625        N630   1.355       .  A
N626        C627   1.356       .  A
C627        N628   1.356   1_556  A
N628        C629   1.356       .  A
C629        N630   1.353   1_554  A
C631        C632   1.406       .  A
C631        C636   1.397       .  A
C631        F638   1.358       .  S
C632        C633   1.406       .  A
C633        C634   1.395       .  A
C633        F640   1.358       .  S
C634        C635   1.407       .  A
C634        F639   1.357       .  S
C635        C636   1.407       .  A
C636        F637   1.358       .  S
C641        C642   1.407       .  A
C641        C646   1.398       .  A
C641        F648   1.357       .  S
C642        C643   1.408       .  A
C643        C644   1.397       .  A
C643        F650   1.357   1_545  S
C644        C645   1.407       .  A
C644        F649   1.358       .  S
C645        C646   1.406       .  A
C646        F647   1.358       .  S
C651        C652   1.404   1_455  A
C651        C656   1.398       .  A
C651        F658   1.358       .  S
C652        C653   1.408       .  A
C653        C654   1.402       .  A
C653        F660   1.358       .  S
C654        C655   1.409   1_655  A
C654        F659   1.358       .  S
C655        C656   1.408       .  A
C656        F657   1.357       .  S
