geometry optimzed in LAMMPS
_audit_creation_date              2020-12-01 
_audit_creation_method            'lammps2cif' 
_symmetry_space_group_name_H-M    'P1' 
_symmetry_Int_Tables_number       1 
_symmetry_cell_setting            triclinic 
loop_ 
_symmetry_equiv_pos_as_xyz 
  x,y,z 
_cell_length_a                    36.26045525 
_cell_length_b                    36.53719778664255 
_cell_length_c                    56.85546578035728 
_cell_angle_alpha                 91.60912484872462 
_cell_angle_beta                  90.05472257712263 
_cell_angle_gamma                 86.57614841988105 
loop_ 
_atom_site_label 
_atom_site_type_symbol 
_atom_site_fract_x 
_atom_site_fract_y 
_atom_site_fract_z 
_atom_site_charge 
C1          C  0.25393554  0.06486701  0.24433730     0.86000
C2          C  0.25076668  0.03280939  0.22634006    -0.54200
C3          C  0.25249328  0.49717006  0.23390670     0.09000
C4          C  0.25793114  0.49770265  0.26084304     0.19900
C5          C  0.22361391  0.05816902  0.26258894    -0.54900
C6          C  0.22504984  0.52301572  0.27038340     0.09100
C7          C  0.29055462  0.05630149  0.25721374    -0.54400
C8          C  0.29299261  0.51938734  0.26476243     0.09600
H9          H  0.24665160  0.53527381  0.20574538     0.14200
H10         H  0.25979701  0.46993596  0.26837820    -0.00100
H11         H  0.19954710  0.07652348  0.26583639     0.14500
H12         H  0.31248434  0.07529457  0.25824477     0.14300
N13         N  0.44090805  0.28537148  0.99908532    -0.37100
N14         N  0.99251614  0.26946506  0.03734647    -0.57600
N15         N  0.05413241  0.25814428  0.00436536    -0.37000
N16         N  0.00208871  0.25927495  0.96547941    -0.57600
C17         C  0.41683577  0.28576100  0.01732281     0.26500
C18         C  0.42139636  0.28171479  0.97890223     0.26500
C19         C  0.07278854  0.26534767  0.02442362     0.26500
C20         C  0.07816876  0.25911879  0.98623646     0.26500
C21         C  0.46231859  0.28753765  0.05064474     0.35200
C22         C  0.02040911  0.26282205  0.05268242     0.35200
C23         C  0.47407755  0.27786210  0.95031066     0.35200
C24         C  0.03356628  0.25190316  0.95303386     0.35200
C25         C  0.38129637  0.28362787  0.00849618    -0.22300
C26         C  0.38420255  0.28076937  0.98434313    -0.22300
C27         C  0.10942927  0.27027330  0.01903949    -0.22300
C28         C  0.11286027  0.26619560  0.99495604    -0.22300
C29         C  0.47126360  0.29312028  0.07415871    -0.23400
C30         C  0.00650767  0.25612788  0.07475978    -0.23400
C31         C  0.48854435  0.28187972  0.92804267    -0.23400
C32         C  0.02532000  0.24624860  0.92942523    -0.23400
C33         C  0.42576013  0.28902930  0.04165208    -0.18700
C34         C  0.43592466  0.28083516  0.95566295    -0.18700
C35         C  0.06988902  0.25277630  0.96214095    -0.18700
C36         C  0.05824065  0.26493825  0.04752205    -0.18700
H37         H  0.35579106  0.28411284  0.01839870     0.14200
H38         H  0.36141529  0.27866169  0.97216471     0.14200
H39         H  0.13154458  0.27566828  0.03121988     0.14200
H40         H  0.13810757  0.26807963  0.98504416     0.14200
H41         H  0.45274649  0.29995415  0.08874241     0.12500
H42         H  0.02185079  0.25044845  0.09071575     0.12500
H43         H  0.47368815  0.28893746  0.91212155     0.12500
H44         H  0.04436913  0.24086225  0.91493058     0.12500
H45         H  0.46860453  0.29070196  0.00019494     0.25700
H46         H  0.02751560  0.24932750  0.00336059     0.25700
C47         C  0.25356970  0.05148763  0.76420316     0.86000
C48         C  0.29071868  0.04562876  0.75096648    -0.54200
C49         C  0.29547503  0.51670010  0.73863108     0.09000
C50         C  0.26187461  0.49279939  0.73878344     0.19900
C51         C  0.22524251  0.05009321  0.74416443    -0.54900
C52         C  0.22840872  0.51890728  0.73231601     0.09100
C53         C  0.24992158  0.01594172  0.77755524    -0.54400
C54         C  0.25662271  0.48472192  0.76500695     0.09600
H55         H  0.31223949  0.06494261  0.75111348     0.14200
H56         H  0.26555852  0.46812416  0.72706093    -0.00100
H57         H  0.20447515  0.07182610  0.74077865     0.14500
H58         H  0.24534016  0.51603256  0.79747994     0.14300
C59         C  0.00594445  0.20212449  0.74295735     0.86000
C60         C  0.50553735  0.23566700  0.72646062    -0.54200
C61         C  0.50397739  0.27070617  0.73600384     0.09000
C62         C  0.50530477  0.27192329  0.76312895     0.19900
C63         C  0.04039252  0.21130574  0.75735179    -0.54900
C64         C  0.03992178  0.24627834  0.76654962     0.09100
C65         C  0.47392943  0.21485720  0.76109063    -0.54400
C66         C  0.47222547  0.24996636  0.77028880     0.09600
H67         H  0.50503505  0.23021627  0.70759991     0.14200
H68         H  0.50485023  0.30015200  0.77092698    -0.00100
H69         H  0.06474713  0.19306792  0.75920778     0.14500
H70         H  0.45208465  0.19629818  0.76376573     0.14300
N71         N  0.23119801  0.47357228  0.00169563    -0.37100
N72         N  0.24174373  0.03150121  0.03740248    -0.57600
N73         N  0.25733257  0.07883057  0.99810190    -0.37000
N74         N  0.25274682  0.01855927  0.96535672    -0.57600
C75         C  0.21930621  0.45833518  0.02149534     0.26500
C76         C  0.21845585  0.45400206  0.98322898     0.26500
C77         C  0.24729891  0.10368316  0.01529619     0.26500
C78         C  0.25435329  0.09629941  0.97742346     0.26500
C79         C  0.24344839  0.50245531  0.05041209     0.35200
C80         C  0.24977985  0.06226554  0.04943270     0.35200
C81         C  0.24608374  0.48860615  0.95140142     0.35200
C82         C  0.26691333  0.04268794  0.95084743     0.35200
C83         C  0.19823826  0.42902739  0.01558890    -0.22300
C84         C  0.19756187  0.42637567  0.99136156    -0.22300
C85         C  0.23823584  0.13739138  0.00545468    -0.22300
C86         C  0.24236353  0.13263234  0.98154997    -0.22300
C87         C  0.25560151  0.51350130  0.07243181    -0.23400
C88         C  0.25564737  0.05474995  0.07299334    -0.23400
C89         C  0.26325190  0.49107870  0.92974384    -0.23400
C90         C  0.28050626  0.02501953  0.93053996    -0.23400
C91         C  0.23096281  0.46760338  0.04450059    -0.18700
C92         C  0.22991873  0.45716222  0.95966538    -0.18700
C93         C  0.26429785  0.08075356  0.95509637    -0.18700
C94         C  0.24881720  0.09737225  0.03969969    -0.18700
H95         H  0.18580651  0.41072977  0.02751059     0.14200
H96         H  0.18461615  0.40549283  0.98092057     0.14200
H97         H  0.22981897  0.16297268  0.01448394     0.14200
H98         H  0.23749675  0.15369325  0.96870809     0.14200
H99         H  0.25867245  0.49723640  0.08800503     0.12500
H100        H  0.26163975  0.07383912  0.08717901     0.12500
H101        H  0.26778353  0.46966208  0.91634422     0.12500
H102        H  0.29276826  0.03724230  0.91552744     0.12500
H103        H  0.25189212  0.49199255  0.00089209     0.25700
H104        H  0.26967900  0.05281195  0.00065116     0.25700
O105        O  0.26311865  0.30377726  0.89873274    -0.80600
O106        O  0.20989894  0.25818622  0.80239478    -0.80600
O107        O  0.23856883  0.34228048  0.82593096    -0.80600
O108        O  0.17450110  0.22323121  0.86969475    -0.80600
O109        O  0.26238406  0.31009208  0.79630604    -0.80700
O110        O  0.20494906  0.26636308  0.88787644    -0.80600
O111        O  0.18022794  0.27480324  0.83528901    -0.80600
O112        O  0.23802727  0.34021674  0.87299698    -0.80600
C113        C  0.24628625  0.33402886  0.89406938     1.09100
C114        C  0.17995852  0.26893352  0.81312555     1.09000
C115        C  0.24889822  0.34049577  0.80490984     1.09100
C116        C  0.17744198  0.24549286  0.88701563     1.09000
O117        O  0.26564029  0.23039930  0.90518924    -0.80600
O118        O  0.31753474  0.26009918  0.81597539    -0.80700
O119        O  0.31604222  0.31410784  0.87243768    -0.80600
O120        O  0.21298259  0.20262817  0.82950905    -0.80600
O121        O  0.26997716  0.20800173  0.82010642    -0.80600
O122        O  0.31457121  0.25418712  0.87369432    -0.80600
O123        O  0.24709809  0.20333742  0.87227724    -0.80500
O124        O  0.31777437  0.31920362  0.82468228    -0.80600
Co125      Co  0.26052355  0.25850979  0.87800100     1.51500
Co126      Co  0.26441256  0.25945647  0.81078421     1.51700
Co127      Co  0.27570464  0.32640141  0.84880009     1.51600
Co128      Co  0.21482298  0.24333521  0.85407408     1.51500
O129        O  0.25587206  0.27556931  0.84496059    -1.42500
C130        C  0.25919554  0.20130420  0.89369014     1.09000
C131        C  0.33360928  0.28968202  0.81603969     1.09100
C132        C  0.33053274  0.28327114  0.87880530     1.09100
C133        C  0.24257389  0.18866947  0.82049549     1.09000
O134        O  0.22311960  0.33941854  0.18451151    -0.80600
O135        O  0.17705267  0.29467527  0.13025347    -0.80600
O136        O  0.24478113  0.34631160  0.13013981    -0.80600
O137        O  0.17798117  0.22547681  0.17685940    -0.80600
O138        O  0.22425899  0.31948684  0.09767572    -0.80700
O139        O  0.17411745  0.28413683  0.18766259    -0.80600
O140        O  0.17704025  0.23445905  0.13014985    -0.80600
O141        O  0.28000823  0.34255157  0.17325513    -0.80600
C142        C  0.25171603  0.35732932  0.18337008     1.09100
C143        C  0.16158217  0.26545668  0.12478777     1.09000
C144        C  0.23345127  0.34813824  0.10850160     1.09100
C145        C  0.15923103  0.25359489  0.18514671     1.09000
O146        O  0.23226120  0.23506799  0.20457915    -0.80600
O147        O  0.28593437  0.28395879  0.11337445    -0.80700
O148        O  0.31076973  0.27095144  0.16453615    -0.80600
O149        O  0.25588876  0.21034743  0.12723699    -0.80600
O150        O  0.22706225  0.24739503  0.10325473    -0.80600
O151        O  0.28407652  0.28601306  0.19889891    -0.80600
O152        O  0.25660900  0.20296944  0.17484041    -0.80500
O153        O  0.31713143  0.32544326  0.13251555    -0.80600
Co154      Co  0.22855498  0.28630569  0.19171107     1.51500
Co155      Co  0.23056569  0.29125359  0.12460918     1.51700
Co156      Co  0.27665353  0.30460680  0.14750528     1.51600
Co157      Co  0.21886705  0.22097144  0.15247285     1.51500
O158        O  0.23621145  0.27245108  0.15707824    -1.42500
C159        C  0.24810679  0.20547475  0.19631569     1.09000
C160        C  0.31411394  0.30399017  0.11484067     1.09100
C161        C  0.31237042  0.27370456  0.18680813     1.09100
C162        C  0.24510223  0.21748248  0.10673475     1.09000
O163        O  0.51972088  0.02779217  0.70530430    -0.80600
O164        O  0.45164946  0.47964555  0.61573246    -0.80600
O165        O  0.98983938  0.04843889  0.62855903    -0.80600
O166        O  0.43498740  0.49082158  0.66752876    -0.80600
O167        O  0.51364818  0.01594307  0.60302836    -0.80700
O168        O  0.46505238  0.97776574  0.69963468    -0.80600
O169        O  0.42263851  0.43717482  0.63371156    -0.80600
O170        O  0.99547674  0.05695641  0.67571042    -0.80600
C171        C  0.00564160  0.05508573  0.69679850     1.09100
C172        C  0.42405310  0.45906170  0.61684420     1.09000
C173        C  0.99645870  0.04035802  0.60727296     1.09100
C174        C  0.43562392  0.48796794  0.68970646     1.09000
O175        O  0.02506335  0.41935808  0.68105880    -0.80600
O176        O  0.06655506  0.46273991  0.62564966    -0.80700
O177        O  0.07359507  0.03054091  0.67346152    -0.80600
O178        O  0.49362569  0.41384571  0.62729035    -0.80600
O179        O  0.01601386  0.43879698  0.59456959    -0.80600
O180        O  0.07515836  0.47205364  0.68369519    -0.80600
O181        O  0.46428787  0.41776048  0.67278688    -0.80500
O182        O  0.06767811  0.02151311  0.62626499    -0.80600
Co183      Co  0.02170078  0.47273497  0.68979102     1.51500
Co184      Co  0.50763026  0.46907972  0.62305061     1.51700
Co185      Co  0.02966001  0.03652903  0.65128972     1.51600
Co186      Co  0.46566066  0.45610781  0.64786870     1.51500
O187        O  0.50816917  0.48782956  0.65635277    -1.42500
C188        C  0.49371018  0.40345013  0.68146508     1.09000
C189        C  0.08152777  0.98994902  0.61978180     1.09100
C190        C  0.09038372  0.00174409  0.68139709     1.09100
C191        C  0.50193251  0.41210163  0.60503359     1.09000
O192        O  0.06971924  0.46198074  0.31163287    -0.80600
O193        O  0.01213471  0.43343205  0.40273806    -0.80600
O194        O  0.06624416  0.01290209  0.37243156    -0.80600
O195        O  0.46172931  0.40929825  0.32381058    -0.80600
O196        O  0.06304279  0.45515663  0.37194963    -0.80700
O197        O  0.01833462  0.40884600  0.31438220    -0.80600
O198        O  0.49325952  0.40544252  0.36860527    -0.80600
O199        O  0.07056993  0.01952376  0.32534222    -0.80600
C200        C  0.08819988  0.99103924  0.31647725     1.09100
C201        C  0.50278757  0.40386179  0.39064223     1.09000
C202        C  0.07880141  0.48428548  0.37730116     1.09100
C203        C  0.48990503  0.39323258  0.31426591     1.09000
O204        O  0.46272980  0.46566440  0.29777876    -0.80600
O205        O  0.51442700  0.00575058  0.39605252    -0.80700
O206        O  0.99216361  0.04477149  0.32444960    -0.80600
O207        O  0.42219252  0.42995706  0.36313040    -0.80600
O208        O  0.45300911  0.47147708  0.38232656    -0.80600
O209        O  0.01816215  0.01288444  0.29528392    -0.80600
O210        O  0.43498650  0.48298475  0.33127715    -0.80500
O211        O  0.98791356  0.03909665  0.37130076    -0.80600
Co212      Co  0.01543629  0.46195682  0.30709780     1.51500
Co213      Co  0.50877445  0.46038342  0.37443705     1.51700
Co214      Co  0.02736821  0.02648370  0.34807636     1.51600
Co215      Co  0.46533888  0.44775296  0.34952419     1.51500
O216        O  0.00697214  0.47651216  0.34184256    -1.42500
C217        C  0.43419631  0.47933220  0.30905178     1.09000
C218        C  0.99501064  0.03241042  0.39245564     1.09100
C219        C  0.00170148  0.04232418  0.30322251     1.09100
C220        C  0.42455736  0.45209065  0.38052551     1.09000
N221        N  0.46862854  0.16978924  0.49786353    -0.37100
N222        N  0.47951264  0.22426293  0.53379278    -0.57600
N223        N  0.49022494  0.27657755  0.49681151    -0.37000
N224        N  0.47550323  0.22158517  0.46066460    -0.57600
C225        C  0.45850172  0.15243522  0.51724806     0.26500
C226        C  0.45429901  0.15197224  0.47923613     0.26500
C227        C  0.48546615  0.29930309  0.51599719     0.26500
C228        C  0.48559197  0.29728821  0.47745802     0.26500
C229        C  0.48365744  0.19414780  0.54704385     0.35200
C230        C  0.49139928  0.25243915  0.54699802     0.35200
C231        C  0.47821697  0.18968352  0.44803898     0.35200
C232        C  0.48997146  0.24699495  0.44721697     0.35200
C233        C  0.43680373  0.12378016  0.51099362    -0.22300
C234        C  0.43406375  0.12353402  0.48685901    -0.22300
C235        C  0.47775765  0.33486499  0.50869886    -0.22300
C236        C  0.47787488  0.33360419  0.48445721    -0.22300
C237        C  0.49794585  0.20325477  0.56889722    -0.23400
C238        C  0.50259583  0.24032201  0.56893282    -0.23400
C239        C  0.49428644  0.19482967  0.42635370    -0.23400
C240        C  0.50160003  0.23131409  0.42579001    -0.23400
C241        C  0.47249868  0.15919056  0.53990006    -0.18700
C242        C  0.46502355  0.15651836  0.45581475    -0.18700
C243        C  0.49052260  0.28451392  0.45372278    -0.18700
C244        C  0.49031918  0.28921773  0.53985594    -0.18700
H245        H  0.42552647  0.10422253  0.52255190     0.14200
H246        H  0.42048941  0.10353901  0.47603186     0.14200
H247        H  0.47283391  0.35932556  0.51969605     0.14200
H248        H  0.47299861  0.35688407  0.47327231     0.14200
H249        H  0.50393190  0.18529635  0.58340106     0.12500
H250        H  0.51305078  0.25648014  0.58343799     0.12500
H251        H  0.49987841  0.17455355  0.41237053     0.12500
H252        H  0.51400458  0.24475033  0.41130267     0.12500
H253        H  0.48945042  0.18812754  0.49711811     0.25700
H254        H  0.50019354  0.24931746  0.49688459     0.25700
N255        N  0.19338291  0.47710325  0.49755496    -0.37100
N256        N  0.24989983  0.46727022  0.53412742    -0.57600
N257        N  0.30745134  0.46596189  0.49876358    -0.37000
N258        N  0.25108225  0.47150586  0.46214099    -0.57600
C259        C  0.17184205  0.47203601  0.51651400     0.26500
C260        C  0.17257341  0.47260227  0.47794131     0.26500
C261        C  0.32747433  0.45501073  0.51766053     0.26500
C262        C  0.32816823  0.45737613  0.47943580     0.26500
C263        C  0.22014698  0.47689471  0.54769893     0.35200
C264        C  0.27975699  0.47018037  0.54819188     0.35200
C265        C  0.22184293  0.47984166  0.44811262     0.35200
C266        C  0.28154345  0.47549380  0.44903188     0.35200
C267        C  0.13656576  0.46489589  0.50890094    -0.22300
C268        C  0.13703290  0.46522513  0.48457671    -0.22300
C269        C  0.36154986  0.43966208  0.51030789    -0.22300
C270        C  0.36198771  0.44112511  0.48611283    -0.22300
C271        C  0.23126028  0.48564577  0.57044770    -0.23400
C272        C  0.26896883  0.48126930  0.57076064    -0.23400
C273        C  0.23383975  0.48882743  0.42597125    -0.23400
C274        C  0.27162467  0.48633299  0.42660815    -0.23400
C275        C  0.18290799  0.47556318  0.54044599    -0.18700
C276        C  0.18447426  0.47685945  0.45437544    -0.18700
C277        C  0.31807016  0.46590010  0.45611973    -0.18700
C278        C  0.31656922  0.46090023  0.54135888    -0.18700
H279        H  0.11290486  0.46013388  0.51974870     0.14200
H280        H  0.11378535  0.46079896  0.47310038     0.14200
H281        H  0.38384582  0.42883478  0.52125143     0.14200
H282        H  0.38473447  0.43164268  0.47475412     0.14200
H283        H  0.21401272  0.49413712  0.58538040     0.12500
H284        H  0.28642501  0.48557751  0.58592093     0.12500
H285        H  0.21717489  0.49597617  0.41079315     0.12500
H286        H  0.28971995  0.49107847  0.41201469     0.12500
H287        H  0.21964600  0.48684225  0.49817502     0.25700
H288        H  0.28299278  0.48225368  0.49917388     0.25700
C289        C  0.99090052  0.18437973  0.25675102     0.86000
C290        C  0.02209889  0.19230940  0.23941069    -0.54200
C291        C  0.01934974  0.22626839  0.22981752     0.09000
C292        C  0.48481357  0.25106965  0.23698497     0.19900
C293        C  0.49284267  0.21819091  0.27350250    -0.54900
C294        C  0.48886163  0.25227728  0.26399783     0.09100
C295        C  0.45523640  0.19367299  0.24147653    -0.54400
C296        C  0.45124334  0.22777368  0.23232557     0.09600
H297        H  0.04636212  0.17438627  0.23595947     0.14200
H298        H  0.48142491  0.27844016  0.22910546    -0.00100
H299        H  0.49772093  0.21455346  0.29212751     0.14500
H300        H  0.43424204  0.17384195  0.23937196     0.14300
C301        C  0.46055746  0.31469591  0.27413124    -0.26800
C302        C  0.48855220  0.28739218  0.27816518    -0.14800
C303        C  0.01196217  0.29214212  0.29843682     0.35800
C304        C  0.01148432  0.32685812  0.30995693    -0.26200
C305        C  0.48803705  0.35647046  0.30251397    -0.15400
C306        C  0.45973754  0.34875354  0.28623242     0.36900
N307        N  0.43058470  0.37544294  0.28091688    -0.89700
H308        H  0.43902722  0.30949751  0.26144000     0.18000
H309        H  0.03080128  0.33165298  0.32410998     0.18000
N310        N  0.03828752  0.26351197  0.30541170    -0.88700
H311        H  0.44228365  0.39908634  0.27517057     0.35400
H312        H  0.41544215  0.38195182  0.29624892     0.40500
H313        H  0.05653241  0.25771720  0.29140869     0.40100
H314        H  0.05418108  0.27238781  0.31958578     0.35000
C315        C  0.01924588  0.11811252  0.26082050    -0.26800
C316        C  0.99224119  0.14598075  0.26782540    -0.14800
C317        C  0.46661868  0.13878020  0.28454963     0.35800
C318        C  0.46906279  0.10421802  0.29465750    -0.26200
C319        C  0.99673272  0.07563067  0.28892027    -0.15400
C320        C  0.02181579  0.08359256  0.27122956     0.36900
N321        N  0.05095610  0.05727438  0.26431101    -0.89700
H322        H  0.03897380  0.12205336  0.24717558     0.18000
H323        H  0.45055852  0.09932065  0.30905061     0.18000
N324        N  0.43766308  0.16404910  0.29319085    -0.88700
H325        H  0.07618103  0.06905396  0.26731362     0.35400
H326        H  0.04856766  0.05183530  0.24623858     0.40500
H327        H  0.42045219  0.17223349  0.27939554     0.40100
H328        H  0.44847259  0.18670945  0.30157403     0.35000
C329        C  0.45480481  0.08837915  0.40495303    -0.26800
C330        C  0.98648704  0.06114650  0.41085930    -0.14800
C331        C  0.00604817  0.06230253  0.43242909     0.35800
C332        C  0.00304378  0.09401644  0.44665119    -0.26200
C333        C  0.46858854  0.12316766  0.44040713    -0.15400
C334        C  0.44682797  0.11857226  0.42013914     0.36900
N335        N  0.41640524  0.14379441  0.41479147    -0.89700
H336        H  0.43909716  0.08601749  0.38880996     0.18000
H337        H  0.01919091  0.09516248  0.46269298     0.18000
N338        N  0.02955493  0.03222419  0.44034688    -0.88700
H339        H  0.42618913  0.16983470  0.41281898     0.35400
H340        H  0.39813685  0.14500945  0.42904774     0.40500
H341        H  0.05091410  0.02667607  0.42826099     0.40100
H342        H  0.01392410  0.00922092  0.44158860     0.35000
C343        C  0.03429451  0.33758929  0.43988665    -0.26800
C344        C  0.49639985  0.31177195  0.43511463    -0.14800
C345        C  0.47248859  0.31589205  0.41558112     0.35800
C346        C  0.47714819  0.34414771  0.39971565    -0.26200
C347        C  0.50464887  0.36910216  0.40342720    -0.15400
C348        C  0.03585757  0.36621310  0.42405321     0.36900
N349        N  0.06346690  0.39241403  0.42714476    -0.89700
H350        H  0.05410166  0.33565693  0.45415429     0.18000
H351        H  0.45751708  0.34816078  0.38549323     0.18000
N352        N  0.44236491  0.29261538  0.41244440    -0.88700
H353        H  0.08940032  0.37829904  0.42647673     0.35400
H354        H  0.06017688  0.40471203  0.44390222     0.40500
H355        H  0.44520965  0.27949556  0.39590874     0.40100
H356        H  0.41782020  0.30915968  0.41243788     0.35000
C357        C  0.12469121  0.44895427  0.40233269    -0.26800
C358        C  0.10932588  0.48312521  0.39507282    -0.14800
C359        C  0.12296630  0.01195555  0.40779343     0.35800
C360        C  0.14288944  0.51237687  0.42715772    -0.26200
C361        C  0.15690535  0.47818721  0.43480863    -0.15400
C362        C  0.14867526  0.44629716  0.42169255     0.36900
N363        N  0.16451494  0.41091046  0.42762496    -0.89700
H364        H  0.11766681  0.42396724  0.39311123     0.18000
H365        H  0.15512208  0.03349007  0.43627979     0.18000
N366        N  0.11214536  0.04774513  0.39960730    -0.88700
H367        H  0.15716164  0.40581247  0.44494748     0.35400
H368        H  0.19327145  0.41150581  0.42676530     0.40500
H369        H  0.13607665  0.06076948  0.39540156     0.40100
H370        H  0.09888047  0.06284216  0.41337753     0.35000
C371        C  0.34676923  0.43209778  0.42194942    -0.26800
C372        C  0.34672718  0.46253819  0.43751622    -0.14800
C373        C  0.37152519  0.49027742  0.43386560     0.35800
C374        C  0.39587796  0.48655956  0.41476340    -0.26200
C375        C  0.39587009  0.45612057  0.39902319    -0.15400
C376        C  0.37104406  0.42861736  0.40278915     0.36900
N377        N  0.37093517  0.39665146  0.38762973    -0.89700
H378        H  0.32754502  0.41098818  0.42464200     0.18000
H379        H  0.41504777  0.50779135  0.41229389     0.18000
N380        N  0.37284196  0.52241967  0.44899389    -0.88700
H381        H  0.34441329  0.39512811  0.38057780     0.35400
H382        H  0.37647662  0.37360658  0.39784399     0.40500
H383        H  0.35354909  0.52252881  0.46259212     0.40100
H384        H  0.36563550  0.54524188  0.43890272     0.35000
C385        C  0.15395365  0.45018889  0.57588787    -0.26800
C386        C  0.15457626  0.47825908  0.55950401    -0.14800
C387        C  0.13330339  0.51115368  0.56382464     0.35800
C388        C  0.11142516  0.51542497  0.58418421    -0.26200
C389        C  0.11036539  0.98702580  0.60118993    -0.15400
C390        C  0.13029366  0.95350863  0.59548086     0.36900
N391        N  0.12855361  0.92274502  0.61057266    -0.89700
H392        H  0.16792629  0.92516692  0.57068762     0.18000
H393        H  0.09445953  0.54062592  0.58686668     0.18000
N394        N  0.13455236  0.54058307  0.54778358    -0.88700
H395        H  0.14490349  0.43687565  0.62903284     0.35400
H396        H  0.14469670  0.90020999  0.60381271     0.40500
H397        H  0.14350953  0.56353110  0.55704082     0.40100
H398        H  0.11400283  0.05492933  0.54667359     0.35000
C399        C  0.37449504  0.42986168  0.59381004    -0.26800
C400        C  0.39541721  0.46053934  0.59813161    -0.14800
C401        C  0.39113275  0.49054078  0.58295019     0.35800
C402        C  0.36612414  0.48949397  0.56416429    -0.26200
C403        C  0.34520262  0.45903292  0.56006983    -0.15400
C404        C  0.34957789  0.42883933  0.57497889     0.36900
N405        N  0.32930307  0.39674230  0.57119403    -0.89700
H406        H  0.37804174  0.40617295  0.60481684     0.18000
H407        H  0.36604340  0.01542847  0.55145318     0.18000
N408        N  0.41164540  0.52246001  0.58664577    -0.88700
H409        H  0.30109924  0.40429573  0.57235055     0.35400
H410        H  0.33495161  0.38639806  0.55416104     0.40500
H411        H  0.40081367  0.04816288  0.58540525     0.40100
H412        H  0.43252818  0.02467533  0.56815842     0.35000
C413        C  0.45493882  0.12939697  0.57689354    -0.26800
C414        C  0.47633421  0.12828167  0.55635102    -0.14800
C415        C  0.00895091  0.09358832  0.55228841     0.35800
C416        C  0.01036184  0.06524283  0.56830276    -0.26200
C417        C  0.98917159  0.06793727  0.58901581    -0.15400
C418        C  0.46060430  0.10251827  0.59388453     0.36900
N419        N  0.43893094  0.10495559  0.61498062    -0.89700
H420        H  0.43450031  0.15186241  0.58005326     0.18000
H421        H  0.02961153  0.04179574  0.56504797     0.18000
N422        N  0.03320248  0.09027409  0.53234390    -0.88700
H423        H  0.41105528  0.10509006  0.61024906     0.35400
H424        H  0.44334072  0.13002777  0.62352729     0.40500
H425        H  0.04972688  0.11277241  0.53259265     0.40100
H426        H  0.01746416  0.09060973  0.51696361     0.35000
C427        C  0.47397685  0.35379206  0.59337336    -0.26800
C428        C  0.50285746  0.37734171  0.59103253    -0.14800
C429        C  0.04081098  0.36637455  0.57597888     0.35800
C430        C  0.03785887  0.33634921  0.56035529    -0.26200
C431        C  0.49481665  0.31872638  0.55819538    -0.15400
C432        C  0.46945359  0.32492341  0.57692151     0.36900
N433        N  0.43831762  0.30282118  0.57873798    -0.89700
H434        H  0.45352250  0.35918388  0.60712397     0.18000
H435        H  0.05880629  0.33069489  0.54694235     0.18000
N436        N  0.07154604  0.38903488  0.57422949    -0.88700
H437        H  0.41430960  0.32010708  0.57813414     0.35400
H438        H  0.43936628  0.29066317  0.59517299     0.40500
H439        H  0.07175669  0.39941308  0.55728023     0.40100
H440        H  0.09578986  0.37249879  0.57637490     0.35000
C441        C  0.06569348  0.21408253  0.19750655    -0.26800
C442        C  0.05057987  0.23857680  0.21500446    -0.14800
C443        C  0.06980843  0.27045372  0.22049159     0.35800
C444        C  0.10405868  0.27559338  0.20978257    -0.26200
C445        C  0.12041290  0.24964285  0.19361755    -0.15400
C446        C  0.10002736  0.21921380  0.18687492     0.36900
N447        N  0.11415981  0.19304035  0.16941069    -0.89700
H448        H  0.05140434  0.18973191  0.19271960     0.18000
H449        H  0.11880042  0.29940229  0.21508012     0.18000
N450        N  0.05676227  0.29712357  0.23788766    -0.88700
H451        H  0.09499276  0.19213657  0.15568487     0.35400
H452        H  0.11632907  0.16722649  0.17695377     0.40500
H453        H  0.05359532  0.28399870  0.25373029     0.40100
H454        H  0.03138285  0.30899123  0.23248887     0.35000
C455        C  0.34813334  0.24884261  0.22113807    -0.26800
C456        C  0.34823518  0.26396099  0.19874819    -0.14800
C457        C  0.38269284  0.26939362  0.18804706     0.35800
C458        C  0.41597352  0.25833922  0.19940731    -0.26200
C459        C  0.41573110  0.24169511  0.22132893    -0.15400
C460        C  0.38134618  0.23781054  0.23254509     0.36900
N461        N  0.38026067  0.22295626  0.25565069    -0.89700
H462        H  0.32195788  0.24507758  0.22964933     0.18000
H463        H  0.44208840  0.26212931  0.19081901     0.18000
N464        N  0.38408596  0.28675492  0.16581006    -0.88700
H465        H  0.35300338  0.22179015  0.26143307     0.35400
H466        H  0.39303009  0.24103562  0.26719732     0.40500
H467        H  0.39850201  0.26877400  0.15396455     0.40100
H468        H  0.39904765  0.31020728  0.16798000     0.35000
C469        C  0.28063786  0.13880379  0.06698128    -0.26800
C470        C  0.24770426  0.12947657  0.05601989    -0.14800
C471        C  0.21437797  0.15027027  0.06107181     0.35800
C472        C  0.21520534  0.18066459  0.07640831    -0.26200
C473        C  0.24779003  0.18908339  0.08809534    -0.15400
C474        C  0.28073073  0.16795014  0.08345791     0.36900
N475        N  0.31417997  0.17591363  0.09541644    -0.89700
H476        H  0.30612662  0.12269902  0.06319068     0.18000
H477        H  0.18968895  0.19662934  0.08021889     0.18000
N478        N  0.17932044  0.14110080  0.05137779    -0.88700
H479        H  0.33421381  0.17991782  0.08268185     0.35400
H480        H  0.32304604  0.15278406  0.10476974     0.40500
H481        H  0.18162916  0.11769123  0.04043361     0.40100
H482        H  0.16254487  0.13459033  0.06542082     0.35000
C483        C  0.20709545  0.43992785  0.08115915    -0.26800
C484        C  0.23256833  0.43866320  0.06245179    -0.14800
C485        C  0.25992908  0.40958898  0.06084509     0.35800
C486        C  0.26029214  0.38171744  0.07705963    -0.26200
C487        C  0.23419257  0.38204237  0.09522756    -0.15400
C488        C  0.20762504  0.41188685  0.09770643     0.36900
N489        N  0.18013830  0.41393422  0.11597583    -0.89700
H490        H  0.18630806  0.46244395  0.08262053     0.18000
H491        H  0.28061671  0.35884389  0.07502154     0.18000
N492        N  0.28766190  0.40762097  0.04283093    -0.88700
H493        H  0.18446920  0.43723131  0.12647958     0.35400
H494        H  0.18321086  0.39155037  0.12696709     0.40500
H495        H  0.30181277  0.43172507  0.04375690     0.40100
H496        H  0.27483544  0.40576163  0.02642247     0.35000
C497        C  0.24289656  0.10768501  0.91711526    -0.26800
C498        C  0.26904994  0.10588319  0.93533965    -0.14800
C499        C  0.29627947  0.13166521  0.93655455     0.35800
C500        C  0.29389492  0.16174711  0.92181505    -0.26200
C501        C  0.26566827  0.16558909  0.90501059    -0.15400
C502        C  0.24141805  0.13708171  0.90163637     0.36900
N503        N  0.21395377  0.13892096  0.88351436    -0.89700
H504        H  0.22228331  0.08743645  0.91576171     0.18000
H505        H  0.31331759  0.18293652  0.92419047     0.18000
N506        N  0.32548731  0.12803937  0.95344711    -0.88700
H507        H  0.18800518  0.13794199  0.89138178     0.35400
H508        H  0.21815171  0.11560891  0.87253252     0.40500
H509        H  0.35057394  0.12673658  0.94432116     0.40100
H510        H  0.32437750  0.15167335  0.96428596     0.35000
C511        C  0.25515732  0.39469410  0.94886625    -0.26800
C512        C  0.23000340  0.42405912  0.94395882    -0.14800
C513        C  0.20781472  0.42231271  0.92359899     0.35800
C514        C  0.21255850  0.39203198  0.90804018    -0.26200
C515        C  0.23896662  0.36318189  0.91240560    -0.15400
C516        C  0.25999876  0.36444472  0.93329964     0.36900
N517        N  0.28762624  0.33608402  0.93831824    -0.89700
H518        H  0.27227661  0.39596560  0.96448212     0.18000
H519        H  0.19589709  0.39138301  0.89221625     0.18000
N520        N  0.18035561  0.45076094  0.91835875    -0.88700
H521        H  0.28115319  0.32501755  0.95445576     0.35400
H522        H  0.31293688  0.34811884  0.94022282     0.40500
H523        H  0.16216613  0.45403018  0.93261973     0.40100
H524        H  0.19315889  0.47532518  0.91636448     0.35000
C525        C  0.47738386  0.12126756  0.70713257    -0.26800
C526        C  0.00351907  0.08979607  0.71164328    -0.14800
C527        C  0.03122292  0.09856670  0.72808594     0.35800
C528        C  0.03147421  0.13413433  0.73825331    -0.26200
C529        C  0.00482120  0.16239937  0.73249221    -0.15400
C530        C  0.47781384  0.15673348  0.71751854     0.36900
N531        N  0.44996547  0.18404353  0.71101124    -0.89700
H532        H  0.45668521  0.11609850  0.69387504     0.18000
H533        H  0.05304224  0.13877728  0.75081042     0.18000
N534        N  0.06044858  0.07248043  0.73427058    -0.88700
H535        H  0.45138424  0.18711282  0.69281079     0.35400
H536        H  0.42416468  0.17441984  0.71494645     0.40500
H537        H  0.07499260  0.06392483  0.71903746     0.40100
H538        H  0.04888753  0.04990634  0.74162686     0.35000
C539        C  0.02036044  0.30359376  0.69884409    -0.26800
C540        C  0.50031251  0.30429681  0.72148976    -0.14800
C541        C  0.47295944  0.33268306  0.72634950     0.35800
C542        C  0.47003428  0.36377428  0.71222805    -0.26200
C543        C  0.49470413  0.36790107  0.69364295    -0.15400
C544        C  0.01952402  0.33568346  0.68571714     0.36900
N545        N  0.04295025  0.33650850  0.66549638    -0.89700
H546        H  0.03955798  0.28087207  0.69380827     0.18000
H547        H  0.44915306  0.38546596  0.71638442     0.18000
N548        N  0.44778459  0.33004105  0.74550150    -0.88700
H549        H  0.06077742  0.35772474  0.66793408     0.35400
H550        H  0.02634595  0.34219285  0.65084140     0.40500
H551        H  0.42091143  0.33175593  0.73878143     0.40100
H552        H  0.45063935  0.35258614  0.75695483     0.35000
C553        C  0.10741039  0.25519066  0.76507187    -0.26800
C554        C  0.07415753  0.26003895  0.77772922    -0.14800
C555        C  0.07570825  0.27214828  0.80152211     0.35800
C556        C  0.11017087  0.27714242  0.81232036    -0.26200
C557        C  0.14377429  0.26996858  0.80001605    -0.15400
C558        C  0.14183563  0.25971737  0.77583286     0.36900
N559        N  0.17472922  0.25228099  0.76216083    -0.89700
H560        H  0.10679636  0.24598801  0.74678555     0.18000
H561        H  0.11059592  0.28504649  0.83082210     0.18000
N562        N  0.04297176  0.27778109  0.81549286    -0.88700
H563        H  0.17361750  0.26960755  0.74781821     0.35400
H564        H  0.17490048  0.22519895  0.75567707     0.40500
H565        H  0.02911359  0.25348927  0.81514344     0.40100
H566        H  0.02608022  0.29835290  0.80787408     0.35000
C567        C  0.43681490  0.28523958  0.80295434    -0.26800
C568        C  0.43720017  0.26682577  0.78086045    -0.14800
C569        C  0.40336490  0.26326292  0.76898018     0.35800
C570        C  0.37000114  0.27382921  0.78031741    -0.26200
C571        C  0.36933353  0.28889031  0.80328748    -0.15400
C572        C  0.40316719  0.29634961  0.81425083     0.36900
N573        N  0.40412840  0.31334639  0.83720677    -0.89700
H574        H  0.46250531  0.28934605  0.81200605     0.18000
H575        H  0.34424995  0.26882110  0.77140992     0.18000
N576        N  0.40278004  0.24863595  0.74533735    -0.88700
H577        H  0.39084436  0.29692034  0.84888099     0.35400
H578        H  0.38930779  0.33874709  0.83666529     0.40500
H579        H  0.38950163  0.26829699  0.73474692     0.40100
H580        H  0.38709294  0.22552995  0.74508422     0.35000
C581        C  0.36347114  0.50247634  0.73904350    -0.26800
C582        C  0.33074581  0.50739665  0.72597766    -0.14800
C583        C  0.33213684  0.99814713  0.70042247     0.35800
C584        C  0.36674649  0.99415047  0.68934988    -0.26200
C585        C  0.40024337  0.49556852  0.70302457    -0.15400
C586        C  0.39796322  0.49639436  0.72798622     0.36900
N587        N  0.42989361  0.49169589  0.74269584    -0.89700
H588        H  0.36218124  0.50351814  0.75810513     0.18000
H589        H  0.36750057  0.98955682  0.67043854     0.18000
N590        N  0.29972447  0.99749364  0.68604533    -0.88700
H591        H  0.44843584  0.51140993  0.73857549     0.35400
H592        H  0.44225997  0.46544042  0.73958793     0.40500
H593        H  0.28356263  0.02179146  0.68918646     0.40100
H594        H  0.28470515  0.97530141  0.69066725     0.35000
C595        C  0.18917370  0.53010350  0.69670509    -0.26800
C596        C  0.19557730  0.00855809  0.71611479    -0.14800
C597        C  0.16643102  0.99082199  0.72637488     0.35800
C598        C  0.13319018  0.98771390  0.71415293    -0.26200
C599        C  0.12764568  0.00315482  0.69202372    -0.15400
C600        C  0.15694100  0.02035149  0.68143620     0.36900
N601        N  0.14741852  0.54946818  0.66469633    -0.89700
H602        H  0.20827082  0.54989095  0.69116349     0.18000
H603        H  0.11080719  0.97472666  0.72262586     0.18000
N604        N  0.16957009  0.97799143  0.74990278    -0.88700
H605        H  0.17266400  0.02211184  0.64747878     0.35400
H606        H  0.15738750  0.06298613  0.65965753     0.40500
H607        H  0.17515454  0.43725001  0.74156023     0.40100
H608        H  0.15645911  0.47368869  0.75712559     0.35000
C609        C  0.28168708  0.10246396  0.78856239    -0.26800
C610        C  0.24961918  0.08570798  0.78078205    -0.14800
C611        C  0.21527285  0.09963817  0.79082415     0.35800
C612        C  0.21359327  0.13250985  0.80436159    -0.26200
C613        C  0.24542664  0.15129943  0.80932534    -0.15400
C614        C  0.27997133  0.13473624  0.80238330     0.36900
N615        N  0.31376230  0.15028625  0.80949230    -0.89700
H616        H  0.30893050  0.09037727  0.78471051     0.18000
H617        H  0.18697333  0.14370875  0.81070146     0.18000
N618        N  0.18179085  0.08083047  0.78861492    -0.88700
H619        H  0.32856967  0.15583550  0.79435561     0.35400
H620        H  0.32938161  0.13072819  0.81895410     0.40500
H621        H  0.18657424  0.05360969  0.79350440     0.40100
H622        H  0.17173060  0.08187330  0.77151368     0.35000
C623        C  0.24688437  0.41680075  0.76025745    -0.26800
C624        C  0.25789325  0.44659168  0.77448365    -0.14800
C625        C  0.27011776  0.43935810  0.79764903     0.35800
C626        C  0.26639510  0.40452539  0.80676895    -0.26200
C627        C  0.25279602  0.37569467  0.79309614    -0.15400
C628        C  0.24420750  0.38162885  0.76930837     0.36900
N629        N  0.23143332  0.35298765  0.75424274    -0.89700
H630        H  0.23920859  0.42072149  0.74210587     0.18000
H631        H  0.27493352  0.39960678  0.82474460     0.18000
N632        N  0.28745781  0.46682816  0.81167689    -0.88700
H633        H  0.20787794  0.34306213  0.76182677     0.35400
H634        H  0.25197275  0.33168400  0.75325271     0.40500
H635        H  0.31200769  0.47246355  0.80322947     0.40100
H636        H  0.29485697  0.45698495  0.82822063     0.35000
C637        C  0.09189629  0.29871776  0.07881642    -0.26800
C638        C  0.08405646  0.26535642  0.06773634    -0.14800
C639        C  0.09839724  0.23231611  0.07694805     0.35800
C640        C  0.12100288  0.23290412  0.09691190    -0.26200
C641        C  0.13067098  0.26629322  0.10756319    -0.25000
C642        C  0.11527302  0.29953440  0.09852240     0.36900
N643        N  0.12374368  0.33418698  0.10893252    -0.89700
H644        H  0.08012131  0.32422022  0.07197233     0.18000
H645        H  0.13225359  0.20698134  0.10341457     0.18000
N646        N  0.09014284  0.19812085  0.06583312    -0.88700
H647        H  0.09895263  0.34818215  0.11409513     0.35400
H648        H  0.13595066  0.34940512  0.09605977     0.40500
H649        H  0.11505092  0.18452047  0.06059270     0.40100
H650        H  0.07779866  0.18227389  0.07830194     0.35000
C651        C  0.38684691  0.32745715  0.07031211    -0.26800
C652        C  0.39507216  0.29311134  0.05920251    -0.14800
C653        C  0.37656027  0.26246976  0.06658591     0.35800
C654        C  0.35018540  0.26684956  0.08455844    -0.26200
C655        C  0.34262992  0.30087027  0.09612256    -0.15400
C656        C  0.36107909  0.33150345  0.08881062     0.36900
N657        N  0.35321400  0.36687775  0.09976755    -0.89700
H658        H  0.40119124  0.35103865  0.06494885     0.18000
H659        H  0.33602583  0.24331787  0.08996675     0.18000
N660        N  0.38481368  0.22644124  0.05665101    -0.88700
H661        H  0.34415559  0.38497940  0.08676113     0.35400
H662        H  0.37786163  0.37599110  0.10671129     0.40500
H663        H  0.37908667  0.22660810  0.03866043     0.40100
H664        H  0.41300086  0.21969982  0.05888293     0.35000
C665        C  0.11439217  0.28235606  0.93662275    -0.26800
C666        C  0.10061129  0.24999480  0.94473552    -0.14800
C667        C  0.11283129  0.21599002  0.93412985     0.35800
C668        C  0.13687596  0.21521995  0.91482973    -0.26200
C669        C  0.15011171  0.24771918  0.90635725    -0.15400
C670        C  0.13949466  0.28144062  0.91783305     0.36900
N671        N  0.15348986  0.31492990  0.91014023    -0.89700
H672        H  0.10505617  0.30852519  0.94465955     0.18000
H673        H  0.14586918  0.18902552  0.90672452     0.18000
N674        N  0.10118707  0.18199588  0.94265110    -0.88700
H675        H  0.16688477  0.32708271  0.92437943     0.35400
H676        H  0.13106615  0.33255947  0.90547396     0.40500
H677        H  0.10860978  0.18037638  0.96038400     0.40100
H678        H  0.07243156  0.18202190  0.94149462     0.35000
C679        C  0.36913182  0.31536974  0.90835636    -0.26800
C680        C  0.36157173  0.28260328  0.89607059    -0.14800
C681        C  0.38038617  0.24958002  0.90282515     0.35800
C682        C  0.40412417  0.24954322  0.92241024    -0.26200
C683        C  0.40979297  0.28197880  0.93537375    -0.15400
C684        C  0.39283803  0.31532915  0.92782268     0.36900
N685        N  0.39931767  0.34951556  0.93960788    -0.89700
H686        H  0.35546222  0.34119921  0.90342183     0.18000
H687        H  0.41820369  0.22402152  0.92757317     0.18000
N688        N  0.37575887  0.21606499  0.88979347    -0.88700
H689        H  0.42769448  0.35314190  0.93928873     0.35400
H690        H  0.39102484  0.34811429  0.95714102     0.40500
H691        H  0.36644376  0.19688832  0.90135205     0.40100
H692        H  0.40167542  0.20623677  0.88349992     0.35000
C693        C  0.36554432  0.49208673  0.31039538    -0.26800
C694        C  0.39824565  0.48833424  0.29684611    -0.14800
C695        C  0.39541279  0.49293159  0.27230736     0.35800
C696        C  0.36058061  0.50133581  0.26203382    -0.26200
C697        C  0.32818962  0.50525076  0.27574278    -0.15400
C698        C  0.33098843  0.50064671  0.30018628     0.36900
N699        N  0.29941008  0.50628159  0.31523219    -0.89700
H700        H  0.36670843  0.48873618  0.32926104     0.18000
H701        H  0.35890740  0.50568421  0.24327097     0.18000
N702        N  0.42779182  0.49022705  0.25781831    -0.88700
H703        H  0.27969718  0.48806692  0.30986332     0.35400
H704        H  0.28832441  0.53305289  0.31313489     0.40500
H705        H  0.42965901  0.51515114  0.24942570     0.40100
H706        H  0.42440790  0.46978520  0.24488928     0.35000
C707        C  0.14449993  0.52430652  0.31392356    -0.26800
C708        C  0.12698011  0.99456625  0.30782853    -0.14800
C709        C  0.14301618  0.97204676  0.28942228     0.35800
C710        C  0.17707419  0.98047003  0.27942479    -0.26200
C711        C  0.19325553  0.51091441  0.28463942    -0.15400
C712        C  0.17852344  0.53219142  0.30406511     0.36900
N713        N  0.19777016  0.56160759  0.31459352    -0.89700
H714        H  0.13364320  0.54152954  0.32844608     0.18000
H715        H  0.18805595  0.96383775  0.26469910     0.18000
N716        N  0.12409288  0.94166766  0.27995301    -0.88700
H717        H  0.19989348  0.58245847  0.30261888     0.35400
H718        H  0.22428270  0.55150852  0.31917122     0.40500
H719        H  0.14149318  0.91799063  0.28150424     0.40100
H720        H  0.11952335  0.94586364  0.26204184     0.35000
C721        C  0.22875073  0.13226563  0.24042580    -0.26800
C722        C  0.25321427  0.10271906  0.23288862    -0.14800
C723        C  0.27848594  0.10921576  0.21465780     0.35800
C724        C  0.27743549  0.14328996  0.20372942    -0.26200
C725        C  0.25200227  0.17199318  0.21067726    -0.15400
C726        C  0.22776297  0.16635947  0.22945907     0.36900
N727        N  0.20095372  0.19468437  0.23696148    -0.89700
H728        H  0.20999862  0.12973323  0.25488534     0.18000
H729        H  0.29639541  0.14705355  0.18939098     0.18000
N730        N  0.30526764  0.08101225  0.20694884    -0.88700
H731        H  0.20517970  0.20043926  0.25484458     0.35400
H732        H  0.17467568  0.18466929  0.23498588     0.40500
H733        H  0.33153926  0.09094839  0.20911628     0.40100
H734        H  0.30116845  0.07574875  0.18899319     0.35000
C735        C  0.22046258  0.41774195  0.19573377    -0.26800
C736        C  0.25265817  0.39431317  0.19479325    -0.14800
C737        C  0.28516174  0.40604486  0.20560012     0.35800
C738        C  0.28439442  0.43971354  0.21818624    -0.26200
C739        C  0.25213899  0.46278276  0.21941498    -0.15400
C740        C  0.22019422  0.45217966  0.20734532     0.36900
N741        N  0.18713153  0.47564352  0.20669724    -0.89700
H742        H  0.19548689  0.40943455  0.18713854     0.18000
H743        H  0.30919859  0.44791658  0.22704805     0.18000
N744        N  0.31877899  0.38337956  0.20445033    -0.88700
H745        H  0.19305392  0.49972931  0.19837252     0.35400
H746        H  0.17879144  0.48247856  0.22391213     0.40500
H747        H  0.32719739  0.37774134  0.22163107     0.40100
H748        H  0.33898571  0.39831183  0.19664870     0.35000
C749        C  0.25416493  0.56291917  0.24264307     0.86000
C750        C  0.25018039  0.53122638  0.22447192    -0.54200
C751        C  0.25404168  0.99882558  0.23583385     0.09000
C752        C  0.25966301  0.99978606  0.26278377     0.19900
C753        C  0.22335295  0.55687005  0.26058066    -0.54900
C754        C  0.22641197  0.02434192  0.27244887     0.09100
C755        C  0.29041916  0.55331618  0.25546877    -0.54400
C756        C  0.29401903  0.02243590  0.26669577     0.09600
H757        H  0.24722178  0.03668158  0.20759293     0.14200
H758        H  0.26230232  0.97210924  0.27042086    -0.00100
H759        H  0.19938893  0.57567693  0.26314762     0.14500
H760        H  0.31290205  0.57168016  0.25653470     0.14300
N761        N  0.44282070  0.77769407  0.99896864    -0.37100
N762        N  0.99280813  0.77804927  0.03582782    -0.57600
N763        N  0.05493956  0.76475148  0.00341378    -0.37000
N764        N  0.00380523  0.77168650  0.96354411    -0.57600
C765        C  0.41834836  0.78360361  0.01692578     0.26500
C766        C  0.42396057  0.78127470  0.97849815     0.26500
C767        C  0.07382102  0.76684483  0.02395201     0.26500
C768        C  0.07969326  0.76452221  0.98557185     0.26500
C769        C  0.46288198  0.77938985  0.05077262     0.35200
C770        C  0.01992948  0.77079691  0.05174799     0.35200
C771        C  0.47749380  0.77636459  0.95010629     0.35200
C772        C  0.03556578  0.76484957  0.95137251     0.35200
C773        C  0.38329087  0.79045240  0.00767758    -0.22300
C774        C  0.38677916  0.78879183  0.98351499    -0.22300
C775        C  0.11129597  0.76688016  0.01906963    -0.22300
C776        C  0.11499251  0.76537709  0.99492103    -0.22300
C777        C  0.47098367  0.77951902  0.07463038    -0.23400
C778        C  0.00473525  0.76771250  0.07388779    -0.23400
C779        C  0.49198635  0.78029086  0.92779610    -0.23400
C780        C  0.02798485  0.76089565  0.92751747    -0.23400
C781        C  0.42663089  0.78327199  0.04141344    -0.18700
C782        C  0.43926768  0.77914166  0.95540044    -0.18700
C783        C  0.07157902  0.76268065  0.96111135    -0.18700
C784        C  0.05839723  0.76789849  0.04698697    -0.18700
H785        H  0.35780843  0.79634218  0.01732533     0.14200
H786        H  0.36448101  0.79337689  0.97107467     0.14200
H787        H  0.13373477  0.76784061  0.03159656     0.14200
H788        H  0.14081487  0.76495880  0.98535853     0.14200
H789        H  0.45184938  0.78121475  0.08927011     0.12500
H790        H  0.01914676  0.76220725  0.09020586     0.12500
H791        H  0.47708866  0.78618035  0.91170425     0.12500
H792        H  0.04737519  0.75586937  0.91316994     0.12500
H793        H  0.47050585  0.76997606  0.00047303     0.25700
H794        H  0.02705252  0.76107557  0.00167805     0.25700
C795        C  0.25387747  0.55222937  0.76576843     0.86000
C796        C  0.29107106  0.54764303  0.75240750    -0.54200
C797        C  0.29452224  0.01428053  0.73741938     0.09000
C798        C  0.26002360  0.99142349  0.73773330     0.19900
C799        C  0.22547060  0.55042427  0.74580338    -0.54900
C800        C  0.22745870  0.01833861  0.73089270     0.09100
C801        C  0.25126040  0.51613314  0.77880319    -0.54400
C802        C  0.25415186  0.98439449  0.76398255     0.09600
H803        H  0.31217141  0.56743345  0.75271349     0.14200
H804        H  0.26266122  0.96592351  0.72671505    -0.00100
H805        H  0.20436548  0.57183638  0.74246215     0.14500
H806        H  0.24470971  0.01603411  0.79634878     0.14300
C807        C  0.01094535  0.70184437  0.74376272     0.86000
C808        C  0.50687718  0.73537033  0.72362429    -0.54200
C809        C  0.50466555  0.77066316  0.73275946     0.09000
C810        C  0.50663809  0.77279500  0.75987794     0.19900
C811        C  0.04462221  0.71071505  0.75896324    -0.54900
C812        C  0.04365926  0.74573301  0.76827863     0.09100
C813        C  0.47713070  0.71466012  0.75897921    -0.54400
C814        C  0.47447956  0.75006010  0.76762687     0.09600
H815        H  0.50574134  0.72929647  0.70484334     0.14200
H816        H  0.50536542  0.80132794  0.76722310    -0.00100
H817        H  0.06889184  0.69233186  0.76096091     0.14500
H818        H  0.45621049  0.69540673  0.76241620     0.14300
N819        N  0.23958547  0.97147953  0.00452430    -0.37100
N820        N  0.24247088  0.53079570  0.03563549    -0.57600
N821        N  0.25967276  0.57883283  0.99731623    -0.37000
N822        N  0.24535567  0.52127238  0.96311260    -0.57600
C823        C  0.22760065  0.95603812  0.02420261     0.26500
C824        C  0.23046345  0.94973510  0.98611534     0.26500
C825        C  0.25256487  0.60346101  0.01522204     0.26500
C826        C  0.25757541  0.59746532  0.97705598     0.26500
C827        C  0.24358262  0.00422599  0.05299438     0.35200
C828        C  0.25397523  0.55986454  0.04809618     0.35200
C829        C  0.25713659  0.98547989  0.95442107     0.35200
C830        C  0.26205951  0.54442724  0.94903982     0.35200
C831        C  0.21040942  0.92418221  0.01826712    -0.22300
C832        C  0.21202451  0.92029789  0.99414189    -0.22300
C833        C  0.24645026  0.63821521  0.00623175    -0.22300
C834        C  0.24942144  0.63441276  0.98217320    -0.22300
C835        C  0.25220153  0.01775985  0.07517718    -0.23400
C836        C  0.26170680  0.55013323  0.07107808    -0.23400
C837        C  0.27448107  0.98851874  0.93285317    -0.23400
C838        C  0.27316983  0.52661921  0.92819246    -0.23400
C839        C  0.23597839  0.96767905  0.04735695    -0.18700
C840        C  0.24243098  0.95345309  0.96274821    -0.18700
C841        C  0.26452892  0.58210387  0.95419612    -0.18700
C842        C  0.25365450  0.59568725  0.03950286    -0.18700
H843        H  0.19901621  0.90515698  0.03015430     0.14200
H844        H  0.20213976  0.89759627  0.98377197     0.14200
H845        H  0.24067388  0.66379634  0.01594822     0.14200
H846        H  0.24595820  0.65644236  0.96988355     0.14200
H847        H  0.25513143  0.00276818  0.09128247     0.12500
H848        H  0.27044705  0.56754518  0.08547388     0.12500
H849        H  0.28112387  0.96688706  0.91988106     0.12500
H850        H  0.28680349  0.53808475  0.91341035     0.12500
H851        H  0.25805417  0.99210988  0.00398747     0.25700
H852        H  0.26912062  0.55157901  0.99893684     0.25700
O853        O  0.27101232  0.80389777  0.89870300    -0.80600
O854        O  0.21273492  0.76068801  0.80316702    -0.80600
O855        O  0.24327992  0.84403564  0.82681956    -0.80600
O856        O  0.17779534  0.72791436  0.87058233    -0.80600
O857        O  0.26559128  0.81128791  0.79683022    -0.80700
O858        O  0.21055759  0.76949187  0.88864160    -0.80600
O859        O  0.18405693  0.77871990  0.83609502    -0.80600
O860        O  0.24549461  0.84174764  0.87395756    -0.80600
C861        C  0.25460962  0.83449314  0.89476256     1.09100
C862        C  0.18322582  0.77234643  0.81399519     1.09000
C863        C  0.25177602  0.84156106  0.80547115     1.09100
C864        C  0.18174118  0.75034729  0.88768696     1.09000
O865        O  0.27112239  0.73176470  0.90504013    -0.80600
O866        O  0.32054674  0.76001706  0.81594468    -0.80700
O867        O  0.32259656  0.81349546  0.87130590    -0.80600
O868        O  0.21443637  0.70543136  0.83025712    -0.80600
O869        O  0.27148998  0.70915519  0.82038615    -0.80600
O870        O  0.31947998  0.75371308  0.87263828    -0.80600
O871        O  0.25010778  0.70560841  0.87245670    -0.80500
O872        O  0.32199566  0.81922592  0.82377374    -0.80600
Co873      Co  0.26566619  0.75965603  0.87789181     1.51500
Co874      Co  0.26730312  0.76064746  0.81109134     1.51700
Co875      Co  0.28136101  0.82719528  0.84874915     1.51600
Co876      Co  0.21831444  0.74637598  0.85459679     1.51500
O877        O  0.26009794  0.77709852  0.84513624    -1.42500
C878        C  0.26347310  0.70307401  0.89354722     1.09000
C879        C  0.33716026  0.78922872  0.81539041     1.09100
C880        C  0.33640500  0.78232236  0.87752375     1.09100
C881        C  0.24351339  0.69056848  0.82107865     1.09000
O882        O  0.22716497  0.83989148  0.18682989    -0.80600
O883        O  0.18089467  0.79533724  0.12924017    -0.80600
O884        O  0.24664121  0.84547312  0.13191925    -0.80600
O885        O  0.17974369  0.72716336  0.17815732    -0.80600
O886        O  0.23177094  0.81809055  0.09831122    -0.80700
O887        O  0.17801806  0.78537320  0.19028046    -0.80600
O888        O  0.17859026  0.73541938  0.13079761    -0.80600
O889        O  0.28351370  0.84328080  0.17463343    -0.80600
C890        C  0.25557620  0.85800207  0.18527846     1.09100
C891        C  0.16442959  0.76646193  0.12424016     1.09000
C892        C  0.23826184  0.84711735  0.10981290     1.09100
C893        C  0.16237131  0.75539753  0.18732896     1.09000
O894        O  0.23548196  0.73509326  0.20632322    -0.80600
O895        O  0.29041879  0.77993527  0.11596049    -0.80700
O896        O  0.31354043  0.77083099  0.16567874    -0.80600
O897        O  0.25744400  0.70882688  0.12896992    -0.80600
O898        O  0.23049617  0.74533606  0.10410585    -0.80600
O899        O  0.28801768  0.78583878  0.20025840    -0.80600
O900        O  0.25784112  0.70303743  0.17603745    -0.80500
O901        O  0.31951412  0.82460917  0.13302202    -0.80600
Co902      Co  0.23235746  0.78651875  0.19357688     1.51500
Co903      Co  0.23493539  0.78965869  0.12538027     1.51700
Co904      Co  0.27906993  0.80462579  0.14898636     1.51600
Co905      Co  0.22023250  0.72141900  0.15376323     1.51500
O906        O  0.23840888  0.77254583  0.15858476    -1.42500
C907        C  0.25051349  0.70540542  0.19765416     1.09000
C908        C  0.31756834  0.80120065  0.11625493     1.09100
C909        C  0.31597412  0.77357404  0.18789222     1.09100
C910        C  0.24719730  0.71493002  0.10827725     1.09000
O911        O  0.52027951  0.52636969  0.70480933    -0.80600
O912        O  0.45418566  0.98239527  0.61508023    -0.80600
O913        O  0.99198714  0.55050823  0.62940192    -0.80600
O914        O  0.43578881  0.99399420  0.66707595    -0.80600
O915        O  0.51091101  0.51287126  0.60274895    -0.80700
O916        O  0.46517807  0.47605560  0.70006300    -0.80600
O917        O  0.42420327  0.94077038  0.63323191    -0.80600
O918        O  0.99766326  0.55737670  0.67649549    -0.80600
C919        C  0.00771310  0.55506436  0.69758530     1.09100
C920        C  0.42591670  0.96271375  0.61645392     1.09000
C921        C  0.99813787  0.54288961  0.60801712     1.09100
C922        C  0.43576428  0.99000086  0.68915561     1.09000
O923        O  0.02537029  0.91951077  0.68139278    -0.80600
O924        O  0.06596653  0.96159411  0.62573595    -0.80700
O925        O  0.07516824  0.53024321  0.67415863    -0.80600
O926        O  0.49570948  0.91707257  0.62744859    -0.80600
O927        O  0.01514523  0.93753370  0.59491046    -0.80600
O928        O  0.07412397  0.97232633  0.68299981    -0.80600
O929        O  0.46448454  0.92053873  0.67208109    -0.80500
O930        O  0.06940536  0.52252924  0.62652315    -0.80600
Co931      Co  0.02109286  0.97280079  0.68978120     1.51500
Co932      Co  0.51012116  0.97197477  0.62309057     1.51700
Co933      Co  0.03160231  0.53731799  0.65189609     1.51600
Co934      Co  0.46696732  0.95934807  0.64758889     1.51500
O935        O  0.50955571  0.99038790  0.65649606    -1.42500
C936        C  0.49367317  0.90548391  0.68055151     1.09000
C937        C  0.08247066  0.49084141  0.61966222     1.09100
C938        C  0.09172417  0.50140056  0.68216765     1.09100
C939        C  0.50562531  0.91479284  0.60546727     1.09000
O940        O  0.07230377  0.96112153  0.31365373    -0.80600
O941        O  0.01436796  0.92952799  0.40277884    -0.80600
O942        O  0.06449406  0.51505180  0.37060575    -0.80600
O943        O  0.46395642  0.90839382  0.32626651    -0.80600
O944        O  0.06499278  0.95293759  0.37238271    -0.80700
O945        O  0.01980022  0.90852569  0.31543971    -0.80600
O946        O  0.49848219  0.90571844  0.37055678    -0.80600
O947        O  0.06789952  0.52047921  0.32311859    -0.80600
C948        C  0.08540573  0.49204218  0.31408220     1.09100
C949        C  0.51026070  0.90440407  0.39222162     1.09000
C950        C  0.08061043  0.98182465  0.37841372     1.09100
C951        C  0.49189797  0.89280721  0.31625109     1.09000
O952        O  0.46254846  0.96461885  0.29991244    -0.80600
O953        O  0.51149470  0.50505881  0.39572585    -0.80700
O954        O  0.98925915  0.54541690  0.32260607    -0.80600
O955        O  0.42669281  0.92737822  0.36596687    -0.80600
O956        O  0.45835885  0.96757172  0.38577907    -0.80600
O957        O  0.01452159  0.51289718  0.29351869    -0.80600
O958        O  0.43548558  0.98117126  0.33381006    -0.80500
O959        O  0.98579654  0.54079689  0.36939768    -0.80600
Co960      Co  0.01804535  0.96172309  0.30831335     1.51500
Co961      Co  0.51409824  0.96042811  0.37541251     1.51700
Co962      Co  0.02509091  0.52766034  0.34618418     1.51600
Co963      Co  0.46810689  0.94707282  0.35170436     1.51500
O964        O  0.00875730  0.97584974  0.34298570    -1.42500
C965        C  0.43436963  0.97836643  0.31150233     1.09000
C966        C  0.99246043  0.53428726  0.39061034     1.09100
C967        C  0.99814342  0.54249601  0.30127615     1.09100
C968        C  0.42995725  0.94796040  0.38398339     1.09000
N969        N  0.47212466  0.67076380  0.49890800    -0.37100
N970        N  0.48599282  0.72445210  0.53560705    -0.57600
N971        N  0.49634065  0.77767157  0.49925676    -0.37000
N972        N  0.47861849  0.72373520  0.46238550    -0.57600
C973        C  0.46379478  0.65207997  0.51816790     0.26500
C974        C  0.45980812  0.65190725  0.48000890     0.26500
C975        C  0.49322109  0.79983466  0.51878603     0.26500
C976        C  0.49099327  0.79907187  0.48030549     0.26500
C977        C  0.48963171  0.69374045  0.54835100     0.35200
C978        C  0.49996767  0.75162418  0.54883974     0.35200
C979        C  0.48129673  0.69229226  0.44917860     0.35200
C980        C  0.49276520  0.74980312  0.44925652     0.35200
C981        C  0.44509215  0.62142166  0.51150172    -0.22300
C982        C  0.44258501  0.62130871  0.48736463    -0.22300
C983        C  0.48567592  0.83576710  0.51205523    -0.22300
C984        C  0.48451086  0.83529454  0.48783657    -0.22300
C985        C  0.50565366  0.70150278  0.56992182    -0.23400
C986        C  0.51221956  0.73820266  0.57022766    -0.23400
C987        C  0.49679119  0.69857431  0.42748938    -0.23400
C988        C  0.50374160  0.73512268  0.42746042    -0.23400
C989        C  0.47733523  0.65920091  0.54101958    -0.18700
C990        C  0.46948196  0.65817263  0.45648290    -0.18700
C991        C  0.49447688  0.78700016  0.45641252    -0.18700
C992        C  0.49940555  0.78879368  0.54237108    -0.18700
H993        H  0.43600891  0.60030275  0.52275754     0.14200
H994        H  0.43125321  0.60005417  0.47638076     0.14200
H995        H  0.48171306  0.85999503  0.52336715     0.14200
H996        H  0.47962903  0.85899294  0.47700528     0.14200
H997        H  0.51182087  0.68277627  0.58400276     0.12500
H998        H  0.52443805  0.75331586  0.58459087     0.12500
H999        H  0.50259203  0.67889312  0.41319913     0.12500
H1000       H  0.51595904  0.74917355  0.41316743     0.12500
H1001       H  0.49084503  0.69113949  0.49838580     0.25700
H1002       H  0.50584774  0.75025513  0.49871809     0.25700
N1003       N  0.19392041  0.97637209  0.49839320    -0.37100
N1004       N  0.24988788  0.97126510  0.53511288    -0.57600
N1005       N  0.30752914  0.96450324  0.49978878    -0.37000
N1006       N  0.25205062  0.96554888  0.46300201    -0.57600
C1007       C  0.17199598  0.97364737  0.51747861     0.26500
C1008       C  0.17302270  0.97130812  0.47895931     0.26500
C1009       C  0.32707404  0.95582659  0.51930103     0.26500
C1010       C  0.32830729  0.95264547  0.48108726     0.26500
C1011       C  0.22003397  0.98155159  0.54837369     0.35200
C1012       C  0.27960621  0.97648121  0.54885310     0.35200
C1013       C  0.22295047  0.97265515  0.44864635     0.35200
C1014       C  0.28265303  0.96680675  0.44955214     0.35200
C1015       C  0.13636437  0.96759348  0.51007677    -0.22300
C1016       C  0.13697526  0.96626806  0.48576550    -0.22300
C1017       C  0.36073524  0.93836780  0.51296342    -0.22300
C1018       C  0.36153619  0.93639139  0.48875535    -0.22300
C1019       C  0.23086967  0.99307546  0.57065869    -0.23400
C1020       C  0.26866177  0.99005128  0.57090659    -0.23400
C1021       C  0.23517662  0.97769971  0.42590577    -0.23400
C1022       C  0.27296136  0.97426030  0.42652508    -0.23400
C1023       C  0.18304783  0.97844760  0.54127760    -0.18700
C1024       C  0.18537909  0.97271112  0.45531897    -0.18700
C1025       C  0.31914095  0.95881527  0.45736513    -0.18700
C1026       C  0.31624526  0.96572720  0.54252565    -0.18700
H1027       H  0.11235205  0.96481726  0.52103638     0.14200
H1028       H  0.11352629  0.96214101  0.47440422     0.14200
H1029       H  0.38261985  0.92856312  0.52456812     0.14200
H1030       H  0.38417039  0.92476796  0.47801295     0.14200
H1031       H  0.21337519  0.00246034  0.58529605     0.12500
H1032       H  0.28606592  0.99631658  0.58578411     0.12500
H1033       H  0.21864323  0.98309774  0.41038942     0.12500
H1034       H  0.29115335  0.97646761  0.41161716     0.12500
H1035       H  0.22068130  0.98479040  0.49855887     0.25700
H1036       H  0.28373856  0.98174973  0.49922374     0.25700
C1037       C  0.99129509  0.68532761  0.25602323     0.86000
C1038       C  0.02395595  0.69284098  0.23968392    -0.54200
C1039       C  0.02285069  0.72727710  0.23091936     0.09000
C1040       C  0.48930698  0.75252812  0.23816929     0.19900
C1041       C  0.49583725  0.71810602  0.27413792    -0.54900
C1042       C  0.49237806  0.75263298  0.26523803     0.09100
C1043       C  0.45942164  0.69496441  0.24116476    -0.54400
C1044       C  0.45586575  0.72949509  0.23264729     0.09600
H1045       H  0.04791887  0.67435234  0.23644719     0.14200
H1046       H  0.48697930  0.78029859  0.23066482    -0.00100
H1047       H  0.49899511  0.71342408  0.29279515     0.14500
H1048       H  0.43840401  0.67538019  0.23825351     0.14300
C1049       C  0.46557048  0.81609840  0.27398503    -0.26800
C1050       C  0.49100734  0.78732604  0.27995781    -0.14800
C1051       C  0.01249257  0.79202127  0.29976734     0.35800
C1052       C  0.01218903  0.82669615  0.31126004    -0.26200
C1053       C  0.48995469  0.85622645  0.30447445    -0.15400
C1054       C  0.46463408  0.85015098  0.28603958     0.36900
N1055       N  0.43865956  0.87853612  0.27852533    -0.89700
H1056       H  0.44628124  0.81220836  0.25968761     0.18000
H1057       H  0.03145745  0.83113616  0.32549680     0.18000
N1058       N  0.03842202  0.76343486  0.30697479    -0.88700
H1059       H  0.45323543  0.90092495  0.27357549     0.35400
H1060       H  0.42142019  0.88669252  0.29267370     0.40500
H1061       H  0.06496799  0.77292987  0.30575168     0.40100
H1062       H  0.03337340  0.75845715  0.32466734     0.35000
C1063       C  0.01606965  0.61770328  0.25849136    -0.26800
C1064       C  0.99044225  0.64638468  0.26613991    -0.14800
C1065       C  0.46798864  0.63832333  0.28273993     0.35800
C1066       C  0.47018093  0.60375242  0.29283136    -0.26200
C1067       C  0.99290175  0.57557139  0.28663423    -0.15400
C1068       C  0.01769879  0.58296330  0.26862474     0.36900
N1069       N  0.04576411  0.55585990  0.26116575    -0.89700
H1070       H  0.03545519  0.62130325  0.24456623     0.18000
H1071       H  0.44958471  0.59779138  0.30576933     0.18000
N1072       N  0.43731032  0.66268374  0.28993560    -0.88700
H1073       H  0.07150628  0.56672701  0.26389852     0.35400
H1074       H  0.04261075  0.55083314  0.24310253     0.40500
H1075       H  0.42069542  0.66933212  0.27555034     0.40100
H1076       H  0.44638418  0.68634002  0.29814006     0.35000
C1077       C  0.45770742  0.59161356  0.40446574    -0.26800
C1078       C  0.98203786  0.56221529  0.40904053    -0.14800
C1079       C  0.99942163  0.56268956  0.43136679     0.35800
C1080       C  0.99413701  0.59355045  0.44611478    -0.26200
C1081       C  0.47307624  0.62565608  0.44008694    -0.15400
C1082       C  0.45097416  0.62195704  0.41981507     0.36900
N1083       N  0.42110583  0.64798562  0.41471800    -0.89700
H1084       H  0.44143472  0.58977791  0.38852162     0.18000
H1085       H  0.00910047  0.59449577  0.46262626     0.18000
N1086       N  0.02283820  0.53275944  0.43961001    -0.88700
H1087       H  0.43149624  0.67370998  0.41260017     0.35400
H1088       H  0.40307310  0.64968661  0.42909866     0.40500
H1089       H  0.04553605  0.52833107  0.42841536     0.40100
H1090       H  0.00774031  0.50925957  0.43973029     0.35000
C1091       C  0.03186277  0.82735186  0.43426531    -0.26800
C1092       C  0.50045509  0.81462637  0.43810387    -0.14800
C1093       C  0.47492140  0.82082167  0.41969328     0.35800
C1094       C  0.48046009  0.84821724  0.40343497    -0.26200
C1095       C  0.51072252  0.87024494  0.40553741    -0.15400
C1096       C  0.03566023  0.85546933  0.41825658     0.36900
N1097       N  0.06958750  0.87368074  0.41698314    -0.89700
H1098       H  0.05469611  0.81913391  0.44564306     0.18000
H1099       H  0.45970207  0.85383823  0.39007277     0.18000
N1100       N  0.44254305  0.80031391  0.41805353    -0.88700
H1101       H  0.08077195  0.86772932  0.40027476     0.35400
H1102       H  0.08874791  0.86300057  0.42911995     0.40500
H1103       H  0.44233348  0.78731440  0.40143801     0.40100
H1104       H  0.41942235  0.81875061  0.41930300     0.35000
C1105       C  0.12392823  0.94551975  0.40434161    -0.26800
C1106       C  0.11077555  0.97995835  0.39626569    -0.14800
C1107       C  0.11987317  0.51524115  0.40728598     0.35800
C1108       C  0.14590189  0.00886286  0.42761312    -0.26200
C1109       C  0.15772930  0.97449494  0.43601207    -0.15400
C1110       C  0.14720118  0.94252123  0.42395425     0.36900
N1111       N  0.15988174  0.90674369  0.43127243    -0.89700
H1112       H  0.11571530  0.92067430  0.39554826     0.18000
H1113       H  0.15052250  0.53712648  0.43642333     0.18000
N1114       N  0.10723664  0.55093677  0.39977530    -0.88700
H1115       H  0.15157934  0.90381602  0.44868577     0.35400
H1116       H  0.18875001  0.90485476  0.43071585     0.40500
H1117       H  0.13040009  0.56540855  0.39591135     0.40100
H1118       H  0.09326174  0.56474022  0.41377902     0.35000
C1119       C  0.35092356  0.92546109  0.42395487    -0.26800
C1120       C  0.34915613  0.95585315  0.43957448    -0.14800
C1121       C  0.37461775  0.98347083  0.43724549     0.35800
C1122       C  0.40074428  0.98006270  0.41906530    -0.26200
C1123       C  0.40168680  0.95025489  0.40284043    -0.15400
C1124       C  0.37683065  0.92241235  0.40565886     0.36900
N1125       N  0.37805396  0.89068088  0.39024951    -0.89700
H1126       H  0.33166640  0.90414564  0.42583372     0.18000
H1127       H  0.42006454  0.00137548  0.41742384     0.18000
N1128       N  0.37468458  0.01536988  0.45269067    -0.88700
H1129       H  0.35219316  0.88925789  0.38223887     0.35400
H1130       H  0.38258394  0.86749728  0.40045135     0.40500
H1131       H  0.35384941  0.01565702  0.46532731     0.40100
H1132       H  0.36897925  0.03841299  0.44250592     0.35000
C1133       C  0.15215555  0.95060197  0.57498266    -0.26800
C1134       C  0.15495755  0.98062432  0.56034454    -0.14800
C1135       C  0.13622535  0.01423397  0.56645424     0.35800
C1136       C  0.11410728  0.01722084  0.58668886    -0.26200
C1137       C  0.11051513  0.48733054  0.60059309    -0.15400
C1138       C  0.13254441  0.45457340  0.59653830     0.36900
N1139       N  0.13354858  0.42619612  0.61357193    -0.89700
H1140       H  0.17140285  0.42536525  0.57293089     0.18000
H1141       H  0.09901707  0.04315339  0.59064837     0.18000
N1142       N  0.14026525  0.04557978  0.55232251    -0.88700
H1143       H  0.14025436  0.93010167  0.62671451     0.35400
H1144       H  0.15122687  0.40399078  0.60800069     0.40500
H1145       H  0.15093224  0.06620896  0.56297054     0.40100
H1146       H  0.10767177  0.54692780  0.54187524     0.35000
C1147       C  0.37259459  0.93650475  0.59574918    -0.26800
C1148       C  0.39652071  0.96525571  0.59827626    -0.14800
C1149       C  0.39402676  0.99391189  0.58197611     0.35800
C1150       C  0.36803675  0.99322792  0.56373728    -0.26200
C1151       C  0.34450313  0.96442756  0.56133751    -0.15400
C1152       C  0.34694695  0.93569987  0.57740011     0.36900
N1153       N  0.32428066  0.90500699  0.57509229    -0.89700
H1154       H  0.37449291  0.91387313  0.60768730     0.18000
H1155       H  0.36253602  0.51291692  0.55291829     0.18000
N1156       N  0.41755749  0.02392080  0.58383285    -0.88700
H1157       H  0.29657659  0.91449848  0.57630293     0.35400
H1158       H  0.32878159  0.89278292  0.55841236     0.40500
H1159       H  0.39276715  0.54504239  0.58885556     0.40100
H1160       H  0.42697981  0.52619451  0.57142199     0.35000
C1161       C  0.45670028  0.62855816  0.57707180    -0.26800
C1162       C  0.48031212  0.62832345  0.55754657    -0.14800
C1163       C  0.00646547  0.59550832  0.55232147     0.35800
C1164       C  0.01020437  0.56809415  0.56890711    -0.26200
C1165       C  0.99015913  0.57079939  0.59006377    -0.15400
C1166       C  0.46008084  0.60052022  0.59347717     0.36900
N1167       N  0.43598323  0.60173890  0.61347438    -0.89700
H1168       H  0.43598790  0.65091198  0.57976437     0.18000
H1169       H  0.02999695  0.54513983  0.56553300     0.18000
N1170       N  0.02951384  0.59221089  0.53181157    -0.88700
H1171       H  0.40873400  0.60281031  0.60740039     0.35400
H1172       H  0.43976894  0.62607064  0.62305528     0.40500
H1173       H  0.04465248  0.61560893  0.53097311     0.40100
H1174       H  0.01287628  0.59065304  0.51686978     0.35000
C1175       C  0.48369734  0.85269438  0.59634819    -0.26800
C1176       C  0.50918136  0.87922540  0.59226673    -0.14800
C1177       C  0.03655161  0.86808928  0.57279465     0.35800
C1178       C  0.03326399  0.83846296  0.55689448    -0.26200
C1179       C  0.50461014  0.81783056  0.56106168    -0.15400
C1180       C  0.48070469  0.82253687  0.58067670     0.36900
N1181       N  0.45207888  0.79784063  0.58406250    -0.89700
H1182       H  0.46416856  0.85675363  0.61074208     0.18000
H1183       H  0.05229415  0.83483261  0.54220596     0.18000
N1184       N  0.06473727  0.89324046  0.56919318    -0.88700
H1185       H  0.42669912  0.81300327  0.58403068     0.35400
H1186       H  0.45568962  0.78655057  0.60066374     0.40500
H1187       H  0.06085469  0.90436377  0.55256012     0.40100
H1188       H  0.09034684  0.87849125  0.56921438     0.35000
C1189       C  0.06632805  0.72089883  0.19685062    -0.26800
C1190       C  0.05512940  0.73991273  0.21769267    -0.14800
C1191       C  0.07846422  0.76607194  0.22748590     0.35800
C1192       C  0.11220908  0.77219268  0.21661425    -0.26200
C1193       C  0.12416208  0.75197673  0.19636849    -0.15400
C1194       C  0.10044904  0.72662927  0.18618134     0.36900
N1195       N  0.11104146  0.70634747  0.16508751    -0.89700
H1196       H  0.04903982  0.70044655  0.18926136     0.18000
H1197       H  0.13016460  0.79142916  0.22488496     0.18000
N1198       N  0.07001382  0.78493422  0.24936270    -0.88700
H1199       H  0.09095745  0.71204590  0.15228135     0.35400
H1200       H  0.11123574  0.67839360  0.16857750     0.40500
H1201       H  0.06703581  0.76534766  0.26213999     0.40100
H1202       H  0.04511580  0.80046594  0.24754280     0.35000
C1203       C  0.35345105  0.75510791  0.22330946    -0.26800
C1204       C  0.35238787  0.76403974  0.19942221    -0.14800
C1205       C  0.38632382  0.76394670  0.18696609     0.35800
C1206       C  0.41993416  0.75411922  0.19829140    -0.26200
C1207       C  0.42059715  0.74385194  0.22181841    -0.15400
C1208       C  0.38707817  0.74500485  0.23458375     0.36900
N1209       N  0.38736184  0.73568346  0.25898482    -0.89700
H1210       H  0.32787083  0.75538617  0.23315962     0.18000
H1211       H  0.44554734  0.75352569  0.18843716     0.18000
N1212       N  0.38697832  0.77403193  0.16280912    -0.88700
H1213       H  0.36056716  0.73767127  0.26586994     0.35400
H1214       H  0.40220773  0.75513236  0.26819231     0.40500
H1215       H  0.39930104  0.75201260  0.15294940     0.40100
H1216       H  0.40356202  0.79632361  0.16143858     0.35000
C1217       C  0.28378617  0.63535542  0.06909149    -0.26800
C1218       C  0.25163167  0.62674105  0.05690491    -0.14800
C1219       C  0.21793639  0.64710165  0.06192819     0.35800
C1220       C  0.21795880  0.67700470  0.07783687    -0.26200
C1221       C  0.25002351  0.68539911  0.09014896    -0.15400
C1222       C  0.28291015  0.66368933  0.08626756     0.36900
N1223       N  0.31536640  0.67025696  0.09971976    -0.89700
H1224       H  0.30943724  0.61932422  0.06567212     0.18000
H1225       H  0.19227314  0.69287321  0.08136209     0.18000
N1226       N  0.18329970  0.63814576  0.05150366    -0.88700
H1227       H  0.33667473  0.67488379  0.08799481     0.35400
H1228       H  0.32293700  0.64635802  0.10867687     0.40500
H1229       H  0.18615492  0.61506586  0.04029457     0.40100
H1230       H  0.16588145  0.63121608  0.06512371     0.35000
C1231       C  0.21289581  0.93991957  0.08414405    -0.26800
C1232       C  0.23886735  0.93952489  0.06574270    -0.14800
C1233       C  0.26698625  0.91105635  0.06427215     0.35800
C1234       C  0.26646466  0.88200425  0.07951838    -0.26200
C1235       C  0.23951821  0.88129567  0.09704873    -0.15400
C1236       C  0.21353774  0.91132515  0.10018587     0.36900
N1237       N  0.18744069  0.91312300  0.11912100    -0.89700
H1238       H  0.19183180  0.96215723  0.08577834     0.18000
H1239       H  0.28706799  0.85938411  0.07743378     0.18000
N1240       N  0.29657360  0.91107769  0.04756741    -0.88700
H1241       H  0.20216731  0.91237421  0.13493670     0.35400
H1242       H  0.17210597  0.88988816  0.11802748     0.40500
H1243       H  0.30974769  0.93561453  0.04982437     0.40100
H1244       H  0.28587027  0.90969329  0.03054377     0.35000
C1245       C  0.24580109  0.60957153  0.91584916    -0.26800
C1246       C  0.27089585  0.60737968  0.93467183    -0.14800
C1247       C  0.29888902  0.63246377  0.93634249     0.35800
C1248       C  0.29708008  0.66301329  0.92192346    -0.26200
C1249       C  0.26969498  0.66718643  0.90457304    -0.15400
C1250       C  0.24568978  0.63880009  0.90036930     0.36900
N1251       N  0.21962858  0.64070476  0.88142680    -0.89700
H1252       H  0.22489356  0.58971176  0.91394910     0.18000
H1253       H  0.31613491  0.68434781  0.92491915     0.18000
N1254       N  0.32776227  0.62770825  0.95351485    -0.88700
H1255       H  0.19306154  0.64015387  0.88848425     0.35400
H1256       H  0.22442400  0.61730804  0.87059278     0.40500
H1257       H  0.34292604  0.60324220  0.94909861     0.40100
H1258       H  0.34609356  0.64864832  0.95249960     0.35000
C1259       C  0.26789322  0.89211702  0.95011432    -0.26800
C1260       C  0.24196821  0.92127797  0.94658842    -0.14800
C1261       C  0.21777673  0.92031526  0.92719009     0.35800
C1262       C  0.22145043  0.89104062  0.91090536    -0.26200
C1263       C  0.24864063  0.86247108  0.91376342    -0.15400
C1264       C  0.27148057  0.86269703  0.93391925     0.36900
N1265       N  0.29951196  0.83412977  0.93755897    -0.89700
H1266       H  0.28634034  0.89285560  0.96512349     0.18000
H1267       H  0.20333343  0.89093466  0.89573492     0.18000
N1268       N  0.18942755  0.94865978  0.92366106    -0.88700
H1269       H  0.29424352  0.82217359  0.95361218     0.35400
H1270       H  0.32483521  0.84622171  0.93906322     0.40500
H1271       H  0.17271480  0.95087613  0.93866880     0.40100
H1272       H  0.20166194  0.97354210  0.92167173     0.35000
C1273       C  0.47746132  0.61898016  0.70831853    -0.26800
C1274       C  0.00633578  0.58976105  0.71248035    -0.14800
C1275       C  0.03300012  0.59738105  0.72992662     0.35800
C1276       C  0.03428668  0.63308122  0.73992819    -0.26200
C1277       C  0.00959238  0.66234944  0.73305320    -0.15400
C1278       C  0.47858976  0.65493979  0.71789658     0.36900
N1279       N  0.44875155  0.68110536  0.71306976    -0.89700
H1280       H  0.45432680  0.61240749  0.69720791     0.18000
H1281       H  0.05486095  0.63719743  0.75328845     0.18000
N1282       N  0.05997175  0.56989706  0.73741170    -0.88700
H1283       H  0.44664712  0.68347494  0.69482771     0.35400
H1284       H  0.42433278  0.67076884  0.71912423     0.40500
H1285       H  0.07558013  0.56023602  0.72283682     0.40100
H1286       H  0.04621247  0.54824828  0.74429106     0.35000
C1287       C  0.02610029  0.80448654  0.70050007    -0.26800
C1288       C  0.49979558  0.80387127  0.71796853    -0.14800
C1289       C  0.47061707  0.83066223  0.72206249     0.35800
C1290       C  0.46775919  0.86248557  0.70858871    -0.26200
C1291       C  0.49433891  0.86893879  0.69151666    -0.15400
C1292       C  0.02420661  0.83651412  0.68729842     0.36900
N1293       N  0.04893938  0.83866770  0.66782486    -0.89700
H1294       H  0.04656400  0.78265042  0.69587712     0.18000
H1295       H  0.44557468  0.88305603  0.71228361     0.18000
N1296       N  0.44374819  0.82574605  0.73992893    -0.88700
H1297       H  0.06549236  0.86075251  0.67089193     0.35400
H1298       H  0.03324239  0.84362405  0.65268247     0.40500
H1299       H  0.41767285  0.82645157  0.73203803     0.40100
H1300       H  0.44422159  0.84788145  0.75196402     0.35000
C1301       C  0.11067322  0.75668260  0.76643838    -0.26800
C1302       C  0.07761486  0.76024876  0.77933251    -0.14800
C1303       C  0.07903029  0.77284885  0.80303616     0.35800
C1304       C  0.11336214  0.77935598  0.81359172    -0.26200
C1305       C  0.14690681  0.77315673  0.80110015    -0.15400
C1306       C  0.14495264  0.76278285  0.77693177     0.36900
N1307       N  0.17778558  0.75674158  0.76301823    -0.89700
H1308       H  0.11009150  0.74737365  0.74817241     0.18000
H1309       H  0.11382697  0.78741255  0.83206909     0.18000
N1310       N  0.04636251  0.77740791  0.81715982    -0.88700
H1311       H  0.17559711  0.77395603  0.74863760     0.35400
H1312       H  0.17908918  0.72958134  0.75661434     0.40500
H1313       H  0.03344209  0.75257450  0.81698989     0.40100
H1314       H  0.02862824  0.79726154  0.80951936     0.35000
C1315       C  0.43969195  0.78616123  0.80009785    -0.26800
C1316       C  0.43947690  0.76603415  0.77863343    -0.14800
C1317       C  0.40518276  0.76002101  0.76787159     0.35800
C1318       C  0.37226307  0.77033269  0.77972615    -0.26200
C1319       C  0.37237881  0.78746984  0.80209448    -0.15400
C1320       C  0.40644514  0.79691734  0.81193387     0.36900
N1321       N  0.40816393  0.81563270  0.83431966    -0.89700
H1322       H  0.46565752  0.79196081  0.80828907     0.18000
H1323       H  0.34627329  0.76373772  0.77166402     0.18000
N1324       N  0.40362110  0.74330015  0.74481920    -0.88700
H1325       H  0.39613111  0.79971720  0.84685782     0.35400
H1326       H  0.39255745  0.84054444  0.83336066     0.40500
H1327       H  0.38887798  0.76149058  0.73390187     0.40100
H1328       H  0.38887076  0.71967700  0.74592235     0.35000
C1329       C  0.36314553  0.00562889  0.73789205    -0.26800
C1330       C  0.33006779  0.00421996  0.72500969    -0.14800
C1331       C  0.33279639  0.50697305  0.70126623     0.35800
C1332       C  0.36714864  0.50103341  0.69011721    -0.26200
C1333       C  0.39999129  0.99576661  0.70215766    -0.15400
C1334       C  0.39779034  0.00144084  0.72689926     0.36900
N1335       N  0.42995585  0.00428706  0.74133558    -0.89700
H1336       H  0.36201545  0.01071198  0.75676721     0.18000
H1337       H  0.36773548  0.50069422  0.67106100     0.18000
N1338       N  0.30061173  0.51387577  0.68706428    -0.88700
H1339       H  0.44573548  0.02482626  0.73485237     0.35400
H1340       H  0.44543412  0.97923647  0.74064288     0.40500
H1341       H  0.28815792  0.53940958  0.69217562     0.40100
H1342       H  0.28207186  0.49375252  0.69018816     0.35000
C1343       C  0.19075259  0.02292260  0.69356170    -0.26800
C1344       C  0.19745941  0.50920401  0.71660335    -0.14800
C1345       C  0.17178237  0.48450630  0.72406646     0.35800
C1346       C  0.13869556  0.48092632  0.71165568    -0.26200
C1347       C  0.12954049  0.50278502  0.69232781    -0.15400
C1348       C  0.15543032  0.52721951  0.68460086     0.36900
N1349       N  0.15248905  0.03508668  0.65847341    -0.89700
H1350       H  0.21272974  0.03732462  0.68574129     0.18000
H1351       H  0.11899030  0.46248648  0.71819438     0.18000
N1352       N  0.17764527  0.46514471  0.74539622    -0.88700
H1353       H  0.16817622  0.54361985  0.65216353     0.35400
H1354       H  0.14852594  0.57695569  0.67013219     0.40500
H1355       H  0.16407102  0.95021839  0.74957193     0.40100
H1356       H  0.14914100  0.99214989  0.76013836     0.35000
C1357       C  0.28152239  0.60271711  0.79064129    -0.26800
C1358       C  0.24948200  0.58640551  0.78247022    -0.14800
C1359       C  0.21501487  0.60102668  0.79203708     0.35800
C1360       C  0.21342114  0.63439649  0.80520167    -0.26200
C1361       C  0.24550321  0.65283705  0.81030471    -0.15400
C1362       C  0.27993776  0.63539619  0.80400353     0.36900
N1363       N  0.31384067  0.65052710  0.81129073    -0.89700
H1364       H  0.30868573  0.58997820  0.78732306     0.18000
H1365       H  0.18680420  0.64617905  0.81116002     0.18000
N1366       N  0.18148948  0.58227495  0.78992465    -0.88700
H1367       H  0.32920025  0.65532221  0.79624493     0.35400
H1368       H  0.32880886  0.63105944  0.82119252     0.40500
H1369       H  0.18637133  0.55505937  0.79482105     0.40100
H1370       H  0.17139943  0.58323675  0.77282482     0.35000
C1371       C  0.23908654  0.91804183  0.76124304    -0.26800
C1372       C  0.25496998  0.94690018  0.77388233    -0.14800
C1373       C  0.27210062  0.93947077  0.79570210     0.35800
C1374       C  0.27040991  0.90463076  0.80505904    -0.26200
C1375       C  0.25317882  0.87628691  0.79297284    -0.15400
C1376       C  0.23776972  0.88282707  0.77054216     0.36900
N1377       N  0.21987228  0.85514094  0.75703159    -0.89700
H1378       H  0.22671542  0.92297251  0.74420984     0.18000
H1379       H  0.28316642  0.89935088  0.82198977     0.18000
N1380       N  0.29206649  0.96691388  0.80806719    -0.88700
H1381       H  0.19217179  0.86421135  0.75505252     0.35400
H1382       H  0.21979297  0.83052215  0.76586090     0.40500
H1383       H  0.31461236  0.97264001  0.79761652     0.40100
H1384       H  0.30288280  0.95697745  0.82386781     0.35000
C1385       C  0.09348306  0.80030107  0.07841052    -0.26800
C1386       C  0.08408289  0.76720224  0.06763117    -0.14800
C1387       C  0.09832902  0.73400693  0.07688402     0.35800
C1388       C  0.12226352  0.73435902  0.09642234    -0.26200
C1389       C  0.13324496  0.76754962  0.10678212    -0.25000
C1390       C  0.11804726  0.80083688  0.09760669     0.36900
N1391       N  0.12805832  0.83543695  0.10722173    -0.89700
H1392       H  0.08224979  0.82600045  0.07154107     0.18000
H1393       H  0.13337066  0.70836258  0.10288239     0.18000
N1394       N  0.08889114  0.69985967  0.06622833    -0.88700
H1395       H  0.10394965  0.85015799  0.11292256     0.35400
H1396       H  0.13944229  0.84981483  0.09362197     0.40500
H1397       H  0.11334895  0.68553245  0.06077020     0.40100
H1398       H  0.07668054  0.68461882  0.07907907     0.35000
C1399       C  0.39089811  0.82238956  0.07130481    -0.26800
C1400       C  0.39578590  0.78868536  0.05884844    -0.14800
C1401       C  0.37481956  0.75926970  0.06540003     0.35800
C1402       C  0.34981024  0.76400511  0.08415890    -0.26200
C1403       C  0.34565851  0.79732750  0.09715788    -0.15400
C1404       C  0.36626974  0.82688987  0.09041387     0.36900
N1405       N  0.36189381  0.86170797  0.10260419    -0.89700
H1406       H  0.40715122  0.84501767  0.06656776     0.18000
H1407       H  0.33379506  0.74122869  0.08880549     0.18000
N1408       N  0.37908781  0.72405577  0.05368328    -0.88700
H1409       H  0.35350243  0.88143864  0.09042230     0.35400
H1410       H  0.38769485  0.86824775  0.10917728     0.40500
H1411       H  0.37281612  0.72720446  0.03588918     0.40100
H1412       H  0.40670233  0.71438047  0.05506486     0.35000
C1413       C  0.11903965  0.79044069  0.93670504    -0.26800
C1414       C  0.10269114  0.75883966  0.94403738    -0.14800
C1415       C  0.11251693  0.72471177  0.93281040     0.35800
C1416       C  0.13779535  0.72287246  0.91425082    -0.26200
C1417       C  0.15389864  0.75442917  0.90664020    -0.15400
C1418       C  0.14475597  0.78860054  0.91812213     0.36900
N1419       N  0.16090107  0.82129707  0.91056265    -0.89700
H1420       H  0.11089935  0.81667623  0.94509876     0.18000
H1421       H  0.14519230  0.69645995  0.90584571     0.18000
N1422       N  0.09673757  0.69163256  0.93972286    -0.88700
H1423       H  0.15131201  0.84402429  0.92088502     0.35400
H1424       H  0.15189076  0.82611555  0.89338756     0.40500
H1425       H  0.10210857  0.68814052  0.95761395     0.40100
H1426       H  0.06814650  0.69438678  0.93737096     0.35000
C1427       C  0.37649419  0.81421570  0.90613062    -0.26800
C1428       C  0.36734749  0.78115823  0.89480297    -0.14800
C1429       C  0.38389157  0.74787824  0.90283722     0.35800
C1430       C  0.40669039  0.74806634  0.92281703    -0.26200
C1431       C  0.41370155  0.78092437  0.93492427    -0.15400
C1432       C  0.39931685  0.81457593  0.92602893     0.36900
N1433       N  0.40655604  0.84946946  0.93688301    -0.89700
H1434       H  0.36449440  0.84021652  0.90019788     0.18000
H1435       H  0.41904627  0.72232846  0.92896604     0.18000
N1436       N  0.37791993  0.71385705  0.89072831    -0.88700
H1437       H  0.42107500  0.86403504  0.92472671     0.35400
H1438       H  0.42348957  0.84662289  0.95163949     0.40500
H1439       H  0.36733158  0.69610276  0.90273834     0.40100
H1440       H  0.40357627  0.70233794  0.88504792     0.35000
C1441       C  0.36601638  0.99430203  0.31277950    -0.26800
C1442       C  0.39868058  0.98910743  0.29928826    -0.14800
C1443       C  0.39619485  0.99409124  0.27467555     0.35800
C1444       C  0.36156269  0.00384685  0.26439372    -0.26200
C1445       C  0.32923908  0.00888835  0.27802802    -0.15400
C1446       C  0.33178947  0.00426025  0.30249720     0.36900
N1447       N  0.30030821  0.01110251  0.31748891    -0.89700
H1448       H  0.36696018  0.99087212  0.33164143     0.18000
H1449       H  0.35980052  0.00811503  0.24562811     0.18000
N1450       N  0.42872536  0.98987779  0.26019884    -0.88700
H1451       H  0.27985999  0.99370979  0.31210196     0.35400
H1452       H  0.29034701  0.03822719  0.31533190     0.40500
H1453       H  0.44581220  0.01085825  0.26508202     0.40100
H1454       H  0.42198506  0.99368381  0.24251330     0.35000
C1455       C  0.14734704  0.02336355  0.31691246    -0.26800
C1456       C  0.12392839  0.49557982  0.30501445    -0.14800
C1457       C  0.13966603  0.47284936  0.28660094     0.35800
C1458       C  0.17426526  0.48033677  0.27692437    -0.26200
C1459       C  0.19556444  0.01133908  0.28712972    -0.15400
C1460       C  0.18116422  0.03180298  0.30697412     0.36900
N1461       N  0.20055068  0.06084885  0.31782463    -0.89700
H1462       H  0.13647140  0.04018981  0.33161180     0.18000
H1463       H  0.18531047  0.46322269  0.26244078     0.18000
N1464       N  0.11986830  0.44332085  0.27675309    -0.88700
H1465       H  0.20324359  0.08175097  0.30593924     0.35400
H1466       H  0.22682835  0.05033784  0.32253661     0.40500
H1467       H  0.13645515  0.41908756  0.27821107     0.40100
H1468       H  0.11573197  0.44800927  0.25885654     0.35000
C1469       C  0.23440104  0.63181842  0.24210530    -0.26800
C1470       C  0.25467614  0.60111569  0.23199533    -0.14800
C1471       C  0.27832040  0.60722316  0.21287174     0.35800
C1472       C  0.27779015  0.64179959  0.20268245    -0.26200
C1473       C  0.25528284  0.67157455  0.21167028    -0.15400
C1474       C  0.23460151  0.66668385  0.23222503     0.36900
N1475       N  0.21302914  0.69676408  0.24294091    -0.89700
H1476       H  0.21858186  0.62954102  0.25800493     0.18000
H1477       H  0.29485956  0.64514549  0.18734371     0.18000
N1478       N  0.30310452  0.57831559  0.20366824    -0.88700
H1479       H  0.22207967  0.70019301  0.26028652     0.35400
H1480       H  0.18547633  0.68984028  0.24338372     0.40500
H1481       H  0.33002855  0.58691647  0.20504457     0.40100
H1482       H  0.29716736  0.57422035  0.18582082     0.35000
C1483       C  0.22384805  0.91860721  0.19728341    -0.26800
C1484       C  0.25624379  0.89536318  0.19660281    -0.14800
C1485       C  0.28827365  0.90752042  0.20781292     0.35800
C1486       C  0.28687532  0.94135835  0.22037089    -0.26200
C1487       C  0.25439581  0.96418905  0.22133998    -0.15400
C1488       C  0.22288777  0.95310444  0.20895705     0.36900
N1489       N  0.18945579  0.97601864  0.20817020    -0.89700
H1490       H  0.19914007  0.91002272  0.18849675     0.18000
H1491       H  0.31136805  0.94983603  0.22947158     0.18000
N1492       N  0.32201470  0.88505815  0.20719516    -0.88700
H1493       H  0.19500940  0.00027250  0.19991856     0.35400
H1494       H  0.18078755  0.98259421  0.22536282     0.40500
H1495       H  0.32983692  0.87965740  0.22451876     0.40100
H1496       H  0.34239711  0.90009979  0.19967565     0.35000
C1497       C  0.75441028  0.06259614  0.24419607     0.86000
C1498       C  0.75074249  0.03077449  0.22599934    -0.54200
C1499       C  0.75275666  0.49602050  0.23532338     0.09000
C1500       C  0.75834376  0.49691015  0.26221654     0.19900
C1501       C  0.72434721  0.05592317  0.26253730    -0.54900
C1502       C  0.72540984  0.52159547  0.27193083     0.09100
C1503       C  0.79108328  0.05352420  0.25678705    -0.54400
C1504       C  0.79256185  0.51947957  0.26617758     0.09600
H1505       H  0.74661741  0.53378007  0.20692612     0.14200
H1506       H  0.76089773  0.46915149  0.26973207    -0.00100
H1507       H  0.70048230  0.07446811  0.26605105     0.14500
H1508       H  0.81312125  0.07239313  0.25787902     0.14300
N1509       N  0.94015370  0.26713603  0.99857157    -0.37100
N1510       N  0.49332170  0.27835827  0.03806729    -0.57600
N1511       N  0.55433064  0.26561797  0.00451930    -0.37000
N1512       N  0.50145351  0.26869487  0.96560583    -0.57600
C1513       C  0.91734739  0.27886930  0.01648924     0.26500
C1514       C  0.92219312  0.27413338  0.97812995     0.26500
C1515       C  0.57317591  0.26079435  0.02486160     0.26500
C1516       C  0.57734459  0.25526745  0.98647977     0.26500
C1517       C  0.96094623  0.26687589  0.04960566     0.35200
C1518       C  0.52186780  0.27874605  0.05338941     0.35200
C1519       C  0.97397975  0.25768260  0.94991923     0.35200
C1520       C  0.53329481  0.26724599  0.95315880     0.35200
C1521       C  0.88421054  0.29297416  0.00731593    -0.22300
C1522       C  0.88711285  0.28963356  0.98315070    -0.22300
C1523       C  0.60904391  0.24764130  0.01966249    -0.22300
C1524       C  0.61162609  0.24404987  0.99548003    -0.22300
C1525       C  0.96884727  0.25843007  0.07276950    -0.23400
C1526       C  0.50882590  0.28775152  0.07586548    -0.23400
C1527       C  0.98772476  0.24982802  0.92746878    -0.23400
C1528       C  0.52596143  0.27516321  0.92982967    -0.23400
C1529       C  0.92516131  0.27562905  0.04085502    -0.18700
C1530       C  0.93623731  0.26612608  0.95510537    -0.18700
C1531       C  0.56895561  0.25778825  0.96214050    -0.18700
C1532       C  0.55943776  0.26939001  0.04790211    -0.18700
H1533       H  0.86028168  0.30418478  0.01703221     0.14200
H1534       H  0.86586678  0.29797475  0.97069971     0.14200
H1535       H  0.63118890  0.24153212  0.03198397     0.14200
H1536       H  0.63613386  0.23476721  0.98564463     0.14200
H1537       H  0.94948729  0.25495039  0.08689790     0.12500
H1538       H  0.52459802  0.28969761  0.09197755     0.12500
H1539       H  0.97239714  0.24777670  0.91119054     0.12500
H1540       H  0.54552515  0.27608631  0.91552374     0.12500
H1541       H  0.96509211  0.25191332  0.00021605     0.25700
H1542       H  0.52838470  0.27871551  0.00296769     0.25700
C1543       C  0.75541979  0.04670343  0.76733160     0.86000
C1544       C  0.79165795  0.04379328  0.75290700    -0.54200
C1545       C  0.79558854  0.50799041  0.73581614     0.09000
C1546       C  0.76029133  0.48634606  0.73639716     0.19900
C1547       C  0.72536610  0.04654355  0.74824697    -0.54900
C1548       C  0.72835715  0.51439651  0.72996627     0.09100
C1549       C  0.75430883  0.00945335  0.77901618    -0.54400
C1550       C  0.75496918  0.47938203  0.76274659     0.09600
H1551       H  0.81291194  0.06338937  0.75413805     0.14200
H1552       H  0.76192755  0.46100831  0.72515093    -0.00100
H1553       H  0.70263826  0.06718002  0.74743852     0.14500
H1554       H  0.74747300  0.51129062  0.79516938     0.14300
C1555       C  0.50694262  0.20490854  0.74476945     0.86000
C1556       C  0.00334144  0.23241238  0.72435468    -0.54200
C1557       C  0.00172313  0.26767962  0.73354234     0.09000
C1558       C  0.00411392  0.26954345  0.76067167     0.19900
C1559       C  0.54108534  0.21326379  0.75965348    -0.54900
C1560       C  0.54056186  0.24801760  0.76915581     0.09100
C1561       C  0.97344648  0.21196991  0.75965315    -0.54400
C1562       C  0.97170782  0.24722209  0.76851961     0.09600
H1563       H  0.00209026  0.22641658  0.70557109     0.14200
H1564       H  0.00342317  0.29797101  0.76812104    -0.00100
H1565       H  0.56537118  0.19481462  0.76134310     0.14500
H1566       H  0.95193086  0.19324948  0.76286305     0.14300
N1567       N  0.74477356  0.46708790  0.00464173    -0.37100
N1568       N  0.75117360  0.02877435  0.03725008    -0.57600
N1569       N  0.76351938  0.07595475  0.99835664    -0.37000
N1570       N  0.75795268  0.01445612  0.96514941    -0.57600
C1571       C  0.73331437  0.45241518  0.02466352     0.26500
C1572       C  0.73436848  0.44508883  0.98666267     0.26500
C1573       C  0.75355066  0.10100371  0.01556511     0.26500
C1574       C  0.76000158  0.09304975  0.97761847     0.26500
C1575       C  0.74939425  0.50143921  0.05288937     0.35200
C1576       C  0.75795219  0.05976021  0.04947687     0.35200
C1577       C  0.75814539  0.48078195  0.95421714     0.35200
C1578       C  0.77134438  0.03902276  0.95059487     0.35200
C1579       C  0.71524384  0.42080331  0.01942877    -0.22300
C1580       C  0.71575274  0.41625367  0.99532700    -0.22300
C1581       C  0.74400803  0.13448380  0.00567397    -0.22300
C1582       C  0.74780658  0.12942360  0.98173254    -0.22300
C1583       C  0.75742439  0.51543412  0.07506573    -0.23400
C1584       C  0.76443166  0.05229276  0.07295405    -0.23400
C1585       C  0.77464967  0.48393589  0.93244189    -0.23400
C1586       C  0.78298350  0.02178942  0.92963935    -0.23400
C1587       C  0.74248720  0.46472544  0.04749248    -0.18700
C1588       C  0.74495431  0.44834688  0.96303356    -0.18700
C1589       C  0.76953586  0.07720539  0.95521926    -0.18700
C1590       C  0.75507526  0.09494095  0.04000549    -0.18700
H1591       H  0.70371958  0.40251713  0.03174925     0.14200
H1592       H  0.70475263  0.39369931  0.98536299     0.14200
H1593       H  0.73535281  0.15998795  0.01474574     0.14200
H1594       H  0.74238920  0.15030770  0.96884166     0.14200
H1595       H  0.76107660  0.50057675  0.09118555     0.12500
H1596       H  0.76969241  0.07156557  0.08718902     0.12500
H1597       H  0.78134725  0.46225505  0.91951157     0.12500
H1598       H  0.79437342  0.03428769  0.91443843     0.12500
H1599       H  0.76347972  0.48748315  0.00364007     0.25700
H1600       H  0.77599501  0.04993632  0.00070022     0.25700
O1601       O  0.76862239  0.29719481  0.89910834    -0.80600
O1602       O  0.70966646  0.25614823  0.80317645    -0.80600
O1603       O  0.74179016  0.34061731  0.82774216    -0.80600
O1604       O  0.67530589  0.22155398  0.87074021    -0.80600
O1605       O  0.76210144  0.30741213  0.79726396    -0.80700
O1606       O  0.70695945  0.26402128  0.88849372    -0.80600
O1607       O  0.68206562  0.27321498  0.83670292    -0.80600
O1608       O  0.74306672  0.33554082  0.87485282    -0.80600
C1609       C  0.75268770  0.32810676  0.89550128     1.09100
C1610       C  0.68073658  0.26810193  0.81452324     1.09000
C1611       C  0.74950698  0.33795566  0.80621439     1.09100
C1612       C  0.67855233  0.24431056  0.88778283     1.09000
O1613       O  0.76692201  0.22592473  0.90505601    -0.80600
O1614       O  0.81777840  0.25595268  0.81532030    -0.80700
O1615       O  0.82036352  0.30546045  0.87198177    -0.80600
O1616       O  0.71276590  0.19985988  0.83000164    -0.80600
O1617       O  0.76951567  0.20446150  0.81939818    -0.80600
O1618       O  0.81516583  0.24592068  0.87213423    -0.80600
O1619       O  0.74789169  0.19905265  0.87232549    -0.80500
O1620       O  0.81944955  0.31468914  0.82471512    -0.80600
Co1621     Co  0.76184608  0.25359581  0.87783663     1.51500
Co1622     Co  0.76437227  0.25630622  0.81085233     1.51700
Co1623     Co  0.77913196  0.32152690  0.84963913     1.51600
Co1624     Co  0.71605476  0.24025108  0.85472986     1.51500
O1625       O  0.75729849  0.27168603  0.84515667    -1.42500
C1626       C  0.76081301  0.19691415  0.89353808     1.09000
C1627       C  0.83451676  0.28515194  0.81576485     1.09100
C1628       C  0.83323217  0.27348406  0.87746635     1.09100
C1629       C  0.74215469  0.18520752  0.82103428     1.09000
O1630       O  0.72513326  0.33824195  0.18524532    -0.80600
O1631       O  0.68069891  0.29566224  0.13023631    -0.80600
O1632       O  0.74851589  0.34379128  0.13190269    -0.80600
O1633       O  0.67828983  0.22570536  0.17743321    -0.80600
O1634       O  0.73105352  0.31769570  0.09844090    -0.80700
O1635       O  0.67497816  0.28433640  0.18797424    -0.80600
O1636       O  0.67775351  0.23567215  0.13067679    -0.80600
O1637       O  0.78251182  0.34073382  0.17473361    -0.80600
C1638       C  0.75399333  0.35584360  0.18456678     1.09100
C1639       C  0.66384131  0.26723879  0.12495818     1.09000
C1640       C  0.73986847  0.34595422  0.10992449     1.09100
C1641       C  0.65965507  0.25413438  0.18515044     1.09000
O1642       O  0.73195833  0.23392051  0.20571110    -0.80600
O1643       O  0.78928071  0.27875912  0.11562854    -0.80700
O1644       O  0.81169842  0.26793504  0.16641949    -0.80600
O1645       O  0.75633793  0.20830210  0.12857134    -0.80600
O1646       O  0.72902055  0.24513001  0.10397439    -0.80600
O1647       O  0.78452419  0.28425889  0.20043404    -0.80600
O1648       O  0.75592094  0.20149292  0.17592787    -0.80500
O1649       O  0.82066772  0.32098303  0.13359830    -0.80600
Co1650     Co  0.72930961  0.28528046  0.19271165     1.51500
Co1651     Co  0.73415039  0.28911402  0.12546640     1.51700
Co1652     Co  0.77911302  0.30208501  0.14910812     1.51600
Co1653     Co  0.71901337  0.22036122  0.15333660     1.51500
O1654       O  0.73755354  0.27105527  0.15823781    -1.42500
C1655       C  0.74772479  0.20421648  0.19745649     1.09000
C1656       C  0.81752533  0.29860613  0.11633661     1.09100
C1657       C  0.81284869  0.27136399  0.18863356     1.09100
C1658       C  0.74604821  0.21479721  0.10793170     1.09000
O1659       O  0.02063650  0.02499872  0.70402110    -0.80600
O1660       O  0.95617176  0.47482478  0.61353370    -0.80600
O1661       O  0.49190043  0.05473239  0.62980659    -0.80600
O1662       O  0.93729043  0.48820802  0.66596525    -0.80600
O1663       O  0.01300298  0.00974859  0.60216436    -0.80700
O1664       O  0.96664064  0.97396296  0.69948507    -0.80600
O1665       O  0.92842588  0.43293896  0.63266659    -0.80600
O1666       O  0.49669504  0.06092427  0.67684903    -0.80600
C1667       C  0.50577823  0.05835911  0.69807781     1.09100
C1668       C  0.92923349  0.45332677  0.61510628     1.09000
C1669       C  0.49741926  0.04658865  0.60840844     1.09100
C1670       C  0.93730758  0.48452312  0.68811243     1.09000
O1671       O  0.52225284  0.42127254  0.68123412    -0.80600
O1672       O  0.56127067  0.46107388  0.62564704    -0.80700
O1673       O  0.57420217  0.03219303  0.67527669    -0.80600
O1674       O  0.00066956  0.41283630  0.62766787    -0.80600
O1675       O  0.50842774  0.44114881  0.59477329    -0.80600
O1676       O  0.57236991  0.47240661  0.68353779    -0.80600
O1677       O  0.96740539  0.41653206  0.67169357    -0.80500
O1678       O  0.56878793  0.02428738  0.62766146    -0.80600
Co1679     Co  0.51932315  0.47420777  0.69023690     1.51500
Co1680     Co  0.01256405  0.46779312  0.62238528     1.51700
Co1681     Co  0.53093429  0.04026544  0.65264597     1.51600
Co1682     Co  0.96989229  0.45439513  0.64690880     1.51500
O1683       O  0.01120992  0.48687777  0.65583141    -1.42500
C1684       C  0.99618422  0.40184311  0.68070440     1.09000
C1685       C  0.58103839  0.99234332  0.62071502     1.09100
C1686       C  0.58986147  0.00293772  0.68339839     1.09100
C1687       C  0.01037610  0.41017082  0.60568828     1.09000
O1688       O  0.57158017  0.46162806  0.31276111    -0.80600
O1689       O  0.50978009  0.43298637  0.40180448    -0.80600
O1690       O  0.56799269  0.01697890  0.37141040    -0.80600
O1691       O  0.96106677  0.40760777  0.32523283    -0.80600
O1692       O  0.56271586  0.45304221  0.37186211    -0.80700
O1693       O  0.51954628  0.40958805  0.31408035    -0.80600
O1694       O  0.99524900  0.40420802  0.37015836    -0.80600
O1695       O  0.57051639  0.02135293  0.32369001    -0.80600
C1696       C  0.58774987  0.99253508  0.31501222     1.09100
C1697       C  0.00583105  0.40368215  0.39211037     1.09000
C1698       C  0.57954207  0.48117788  0.37786009     1.09100
C1699       C  0.98889175  0.39220310  0.31501166     1.09000
O1700       O  0.96034538  0.46426461  0.29932455    -0.80600
O1701       O  0.01235936  0.00242373  0.39701913    -0.80700
O1702       O  0.49212542  0.04625385  0.32324649    -0.80600
O1703       O  0.92338379  0.42566506  0.36480789    -0.80600
O1704       O  0.95251708  0.46785164  0.38434471    -0.80600
O1705       O  0.51683969  0.01351699  0.29406646    -0.80600
O1706       O  0.93322664  0.48024200  0.33336126    -0.80500
O1707       O  0.48901802  0.04181450  0.37025683    -0.80600
Co1708     Co  0.51766316  0.46276321  0.30688162     1.51500
Co1709     Co  0.00881669  0.45973899  0.37506730     1.51700
Co1710     Co  0.52812348  0.02887152  0.34686834     1.51600
Co1711     Co  0.96525764  0.44563800  0.35102559     1.51500
O1712       O  0.50833810  0.47743950  0.34142559    -1.42500
C1713       C  0.93229508  0.47780086  0.31107711     1.09000
C1714       C  0.49549380  0.03481062  0.39144473     1.09100
C1715       C  0.50070346  0.04324643  0.30183804     1.09100
C1716       C  0.92509546  0.44689206  0.38261858     1.09000
N1717       N  0.98108800  0.16858531  0.49877241    -0.37100
N1718       N  0.99173836  0.22149053  0.53548521    -0.57600
N1719       N  0.00267156  0.27532376  0.49949205    -0.37000
N1720       N  0.98928335  0.22144134  0.46268221    -0.57600
C1721       C  0.96977447  0.15109591  0.51777823     0.26500
C1722       C  0.96647898  0.15199598  0.47979236     0.26500
C1723       C  0.99736914  0.29714712  0.51898230     0.26500
C1724       C  0.99785197  0.29674831  0.48050841     0.26500
C1725       C  0.99622311  0.19073271  0.54808118     0.35200
C1726       C  0.00433608  0.24894662  0.54898028     0.35200
C1727       C  0.99290224  0.18985406  0.44978719     0.35200
C1728       C  0.00457443  0.24724432  0.45000600     0.35200
C1729       C  0.94691171  0.12366350  0.51095310    -0.22300
C1730       C  0.94475877  0.12427558  0.48681167    -0.22300
C1731       C  0.98908223  0.33295812  0.51230782    -0.22300
C1732       C  0.98935707  0.33270095  0.48805314    -0.22300
C1733       C  0.01165099  0.19864264  0.56979473    -0.23400
C1734       C  0.01648755  0.23575123  0.57045500    -0.23400
C1735       C  0.01077847  0.19546186  0.42877607    -0.23400
C1736       C  0.01797022  0.23208324  0.42884207    -0.23400
C1737       C  0.98384961  0.15647080  0.54052440    -0.18700
C1738       C  0.97817323  0.15690454  0.45661884    -0.18700
C1739       C  0.00335643  0.28475599  0.45670735    -0.18700
C1740       C  0.00279755  0.28600542  0.54252643    -0.18700
H1741       H  0.93456070  0.10423632  0.52212219     0.14200
H1742       H  0.93061081  0.10521789  0.47559476     0.14200
H1743       H  0.98386328  0.35691152  0.52372695     0.14200
H1744       H  0.98426926  0.35639555  0.47725244     0.14200
H1745       H  0.01811412  0.17986275  0.58380143     0.12500
H1746       H  0.02761132  0.25125144  0.58504099     0.12500
H1747       H  0.01733023  0.17547212  0.41476700     0.12500
H1748       H  0.03120648  0.24603933  0.41489798     0.12500
H1749       H  0.00273464  0.18607558  0.49849546     0.25700
H1750       H  0.01320323  0.24820520  0.49920006     0.25700
N1751       N  0.69205497  0.46675889  0.49910900    -0.37100
N1752       N  0.74826217  0.45486491  0.53604247    -0.57600
N1753       N  0.80541313  0.44912402  0.50030403    -0.37000
N1754       N  0.74950899  0.45687568  0.46348609    -0.57600
C1755       C  0.67014655  0.46389796  0.51816641     0.26500
C1756       C  0.67085819  0.46323965  0.47957443     0.26500
C1757       C  0.82552978  0.43896315  0.51935408     0.26500
C1758       C  0.82629997  0.44055736  0.48101040     0.26500
C1759       C  0.71883795  0.46655666  0.54942789     0.35200
C1760       C  0.77840133  0.45654759  0.55006649     0.35200
C1761       C  0.72063067  0.46718674  0.44960523     0.35200
C1762       C  0.78029561  0.45988377  0.45045444     0.35200
C1763       C  0.63427984  0.45900720  0.51068844    -0.22300
C1764       C  0.63473203  0.45859753  0.48636062    -0.22300
C1765       C  0.85966921  0.42361593  0.51207042    -0.22300
C1766       C  0.86017632  0.42467224  0.48784771    -0.22300
C1767       C  0.73036903  0.47512258  0.57211488    -0.23400
C1768       C  0.76800095  0.46874403  0.57250885    -0.23400
C1769       C  0.73319363  0.47613991  0.42758444    -0.23400
C1770       C  0.77091824  0.47178537  0.42818901    -0.23400
C1771       C  0.68141370  0.46764107  0.54204805    -0.18700
C1772       C  0.68296008  0.46655884  0.45595678    -0.18700
C1773       C  0.81667623  0.44968027  0.45766662    -0.18700
C1774       C  0.81518128  0.44644837  0.54309172    -0.18700
H1775       H  0.61020657  0.45639208  0.52162276     0.14200
H1776       H  0.61105988  0.45571113  0.47499010     0.14200
H1777       H  0.88218595  0.41352019  0.52309981     0.14200
H1778       H  0.88316545  0.41554399  0.47659120     0.14200
H1779       H  0.71344535  0.48500801  0.58690619     0.12500
H1780       H  0.78567797  0.47273556  0.58759982     0.12500
H1781       H  0.71699367  0.48475007  0.41251789     0.12500
H1782       H  0.78930304  0.47635099  0.41371599     0.12500
H1783       H  0.71903964  0.47467692  0.49958562     0.25700
H1784       H  0.78107758  0.46556957  0.50057081     0.25700
C1785       C  0.49090169  0.18583244  0.25544447     0.86000
C1786       C  0.52199893  0.19337207  0.23799825    -0.54200
C1787       C  0.51941807  0.22743797  0.22838662     0.09000
C1788       C  0.98454308  0.24961348  0.23841468     0.19900
C1789       C  0.99192893  0.21664789  0.27491267    -0.54900
C1790       C  0.98809471  0.25083979  0.26547062     0.09100
C1791       C  0.95538374  0.19184776  0.24263383    -0.54400
C1792       C  0.95117403  0.22605540  0.23375305     0.09600
H1793       H  0.54621501  0.17514110  0.23486097     0.14200
H1794       H  0.98113684  0.27690926  0.23043294    -0.00100
H1795       H  0.99540939  0.21265143  0.29362014     0.14500
H1796       H  0.93463314  0.17184650  0.24020932     0.14300
C1797       C  0.96206338  0.31498256  0.27323708    -0.26800
C1798       C  0.98714929  0.28610509  0.27963255    -0.14800
C1799       C  0.51644356  0.29474338  0.29470707     0.35800
C1800       C  0.51619813  0.32923290  0.30646430    -0.26200
C1801       C  0.98678460  0.35564972  0.30327651    -0.15400
C1802       C  0.96162404  0.34945283  0.28477174     0.36900
N1803       N  0.93639688  0.37806957  0.27666868    -0.89700
H1804       H  0.94271862  0.31086099  0.25900025     0.18000
H1805       H  0.53824085  0.33479241  0.31870404     0.18000
N1806       N  0.54595447  0.26788939  0.29888656    -0.88700
H1807       H  0.95160661  0.39990451  0.27150113     0.35400
H1808       H  0.91909382  0.38714472  0.29059470     0.40500
H1809       H  0.57088983  0.27938161  0.29500607     0.40100
H1810       H  0.54601252  0.26219088  0.31680270     0.35000
C1811       C  0.51575507  0.11796371  0.25763418    -0.26800
C1812       C  0.49175418  0.14727772  0.26643128    -0.14800
C1813       C  0.96572471  0.13649815  0.28489689     0.35800
C1814       C  0.96866717  0.10209318  0.29516664    -0.26200
C1815       C  0.49499276  0.07637337  0.28710655    -0.15400
C1816       C  0.51746557  0.08285164  0.26758966     0.36900
N1817       N  0.54272775  0.05422947  0.25828203    -0.89700
H1818       H  0.53299440  0.12146195  0.24256454     0.18000
H1819       H  0.94875072  0.09614254  0.30853793     0.18000
N1820       N  0.93495643  0.16053166  0.29230786    -0.88700
H1821       H  0.55834026  0.06378016  0.24453075     0.35400
H1822       H  0.52694432  0.03379926  0.25091400     0.40500
H1823       H  0.91779037  0.16637596  0.27804758     0.40100
H1824       H  0.94387372  0.18460489  0.30002684     0.35000
C1825       C  0.96114399  0.09056974  0.40563588    -0.26800
C1826       C  0.48331918  0.06189928  0.41007868    -0.14800
C1827       C  0.50174913  0.06438453  0.43199231     0.35800
C1828       C  0.49472736  0.09527749  0.44658063    -0.26200
C1829       C  0.97978126  0.12427586  0.44053176    -0.15400
C1830       C  0.95724992  0.12181379  0.42042873     0.36900
N1831       N  0.92996893  0.15025342  0.41488228    -0.89700
H1832       H  0.94476250  0.08964428  0.38969912     0.18000
H1833       H  0.51038185  0.09793859  0.46273814     0.18000
N1834       N  0.52829523  0.03672420  0.43977618    -0.88700
H1835       H  0.94308409  0.17450421  0.41233862     0.35400
H1836       H  0.91207564  0.15437406  0.42925062     0.40500
H1837       H  0.55013116  0.03396896  0.42780718     0.40100
H1838       H  0.51550880  0.01188955  0.44055174     0.35000
C1839       C  0.52556540  0.33507078  0.43768449    -0.26800
C1840       C  0.00656314  0.31253061  0.43810628    -0.14800
C1841       C  0.98118987  0.31519982  0.41927008     0.35800
C1842       C  0.98337162  0.34327575  0.40296654    -0.26200
C1843       C  0.00985422  0.36954025  0.40555864    -0.15400
C1844       C  0.52961072  0.36379285  0.42225811     0.36900
N1845       N  0.55877543  0.38802675  0.42607195    -0.89700
H1846       H  0.54453404  0.33178432  0.45232351     0.18000
H1847       H  0.96271341  0.34598381  0.38923500     0.18000
N1848       N  0.95204388  0.29051484  0.41733805    -0.88700
H1849       H  0.58379386  0.37225946  0.42568042     0.35400
H1850       H  0.55557914  0.40009733  0.44289769     0.40500
H1851       H  0.95414046  0.27712999  0.40085620     0.40100
H1852       H  0.92685445  0.30599611  0.41802447     0.35000
C1853       C  0.62007802  0.44286911  0.40458477    -0.26800
C1854       C  0.60959189  0.47777867  0.39595149    -0.14800
C1855       C  0.62413517  0.01592180  0.40830985     0.35800
C1856       C  0.64599351  0.50468264  0.42756012    -0.26200
C1857       C  0.65532586  0.46992244  0.43644803    -0.15400
C1858       C  0.64286060  0.43869473  0.42441846     0.36900
N1859       N  0.65315893  0.40240910  0.43192887    -0.89700
H1860       H  0.61002730  0.41849479  0.39609741     0.18000
H1861       H  0.65485056  0.03667862  0.43785238     0.18000
N1862       N  0.61379496  0.05188332  0.40023782    -0.88700
H1863       H  0.64412256  0.40005446  0.44923909     0.35400
H1864       H  0.68197578  0.39880786  0.43169692     0.40500
H1865       H  0.63798262  0.06489244  0.39661440     0.40100
H1866       H  0.60004787  0.06679463  0.41389231     0.35000
C1867       C  0.85071910  0.41798675  0.42437122    -0.26800
C1868       C  0.84617631  0.44889663  0.43946923    -0.14800
C1869       C  0.86669334  0.47988060  0.43533634     0.35800
C1870       C  0.89207683  0.47858323  0.41667234    -0.26200
C1871       C  0.89653009  0.44773163  0.40138864    -0.15400
C1872       C  0.87538175  0.41720540  0.40533244     0.36900
N1873       N  0.87916792  0.38507620  0.39030213    -0.89700
H1874       H  0.83448370  0.39451782  0.42716719     0.18000
H1875       H  0.90807075  0.50223219  0.41391919     0.18000
N1876       N  0.86219715  0.51320717  0.44939214    -0.88700
H1877       H  0.85325618  0.38044853  0.38310192     0.35400
H1878       H  0.88717274  0.36275265  0.40063839     0.40500
H1879       H  0.84296033  0.51123099  0.46286215     0.40100
H1880       H  0.85163902  0.53384132  0.43845089     0.35000
C1881       C  0.64943083  0.44407178  0.57686995    -0.26800
C1882       C  0.65288076  0.47232035  0.56092991    -0.14800
C1883       C  0.63307797  0.50616012  0.56499205     0.35800
C1884       C  0.61056659  0.51145677  0.58500844    -0.26200
C1885       C  0.60972738  0.98849759  0.60214452    -0.15400
C1886       C  0.63170579  0.95566981  0.59856329     0.36900
N1887       N  0.63200927  0.92754881  0.61575589    -0.89700
H1888       H  0.67092059  0.92592510  0.57551381     0.18000
H1889       H  0.59497122  0.53749355  0.58758530     0.18000
N1890       N  0.63610225  0.53532868  0.54893218    -0.88700
H1891       H  0.63517439  0.42849881  0.62914729     0.35400
H1892       H  0.64976773  0.90520974  0.61052412     0.40500
H1893       H  0.64561003  0.55793410  0.55829009     0.40100
H1894       H  0.61779095  0.06346250  0.55437849     0.35000
C1895       C  0.87733062  0.42208517  0.59540438    -0.26800
C1896       C  0.89987521  0.45222560  0.59668137    -0.14800
C1897       C  0.89530549  0.47931650  0.57945438     0.35800
C1898       C  0.86777950  0.47657944  0.56217320    -0.26200
C1899       C  0.84495939  0.44692317  0.56127492    -0.15400
C1900       C  0.85035795  0.41902583  0.57783893     0.36900
N1901       N  0.82939272  0.38700797  0.57689032    -0.89700
H1902       H  0.88110211  0.40029573  0.60788123     0.18000
H1903       H  0.86351830  0.00360437  0.55299692     0.18000
N1904       N  0.91836242  0.50980039  0.57938836    -0.88700
H1905       H  0.80140794  0.39514674  0.57871475     0.35400
H1906       H  0.83335317  0.37418817  0.56033671     0.40500
H1907       H  0.89810461  0.03681271  0.58708016     0.40100
H1908       H  0.93001965  0.01573527  0.56878373     0.35000
C1909       C  0.96265952  0.12713558  0.57669765    -0.26800
C1910       C  0.98524160  0.12522053  0.55668813    -0.14800
C1911       C  0.50255191  0.09854876  0.55218883     0.35800
C1912       C  0.50748857  0.07131214  0.56884935    -0.26200
C1913       C  0.48762678  0.07346896  0.59007314    -0.15400
C1914       C  0.96444727  0.09886014  0.59289807     0.36900
N1915       N  0.94122074  0.10180662  0.61330238    -0.89700
H1916       H  0.94395980  0.15100346  0.57992903     0.18000
H1917       H  0.52834584  0.04924221  0.56562175     0.18000
N1918       N  0.52587261  0.09626876  0.53179402    -0.88700
H1919       H  0.91375884  0.10456710  0.60767961     0.35400
H1920       H  0.94706862  0.12573883  0.62274611     0.40500
H1921       H  0.54017900  0.12023169  0.53117042     0.40100
H1922       H  0.50945452  0.09435949  0.51676725     0.35000
C1923       C  0.98389142  0.35130276  0.59494618    -0.26800
C1924       C  0.01313590  0.37447924  0.59302426    -0.14800
C1925       C  0.52854640  0.37069988  0.57253712     0.35800
C1926       C  0.52463362  0.34125248  0.55654991    -0.26200
C1927       C  0.00725254  0.31471607  0.56117937    -0.15400
C1928       C  0.98041680  0.32183226  0.57890024     0.36900
N1929       N  0.94866803  0.30040800  0.57983867    -0.89700
H1930       H  0.96219284  0.35770063  0.60777987     0.18000
H1931       H  0.54444757  0.33652502  0.54236643     0.18000
N1932       N  0.55838589  0.39421504  0.56972833    -0.88700
H1933       H  0.92510507  0.31807225  0.57811395     0.35400
H1934       H  0.94790460  0.28891770  0.59645413     0.40500
H1935       H  0.55624679  0.40543138  0.55302751     0.40100
H1936       H  0.58319777  0.37816367  0.57041497     0.35000
C1937       C  0.56613539  0.21483216  0.19662840    -0.26800
C1938       C  0.55065563  0.23975327  0.21370080    -0.14800
C1939       C  0.56943450  0.27204231  0.21887227     0.35800
C1940       C  0.60359795  0.27722964  0.20821563    -0.26200
C1941       C  0.62050541  0.25067743  0.19273986    -0.15400
C1942       C  0.60067707  0.21967109  0.18623586     0.36900
N1943       N  0.61603124  0.19250048  0.16964225    -0.89700
H1944       H  0.55189967  0.19031404  0.19219669     0.18000
H1945       H  0.61806023  0.30133097  0.21329065     0.18000
N1946       N  0.55640665  0.29883441  0.23617117    -0.88700
H1947       H  0.61742372  0.20492512  0.15335825     0.35400
H1948       H  0.59855711  0.17092401  0.16739601     0.40500
H1949       H  0.55369285  0.28576857  0.25207791     0.40100
H1950       H  0.53094361  0.31055719  0.23087621     0.35000
C1951       C  0.84817162  0.24755433  0.22326255    -0.26800
C1952       C  0.84838893  0.26200841  0.20070507    -0.14800
C1953       C  0.88273662  0.26702605  0.18979533     0.35800
C1954       C  0.91590913  0.25604072  0.20108646    -0.26200
C1955       C  0.91563644  0.23994438  0.22311024    -0.15400
C1956       C  0.88137942  0.23658273  0.23462643     0.36900
N1957       N  0.88042947  0.22229033  0.25789437    -0.89700
H1958       H  0.82198790  0.24419301  0.23187935     0.18000
H1959       H  0.94199399  0.25939001  0.19234712     0.18000
N1960       N  0.88413698  0.28380730  0.16736524    -0.88700
H1961       H  0.85320990  0.22149725  0.26382263     0.35400
H1962       H  0.89346232  0.24052443  0.26920388     0.40500
H1963       H  0.89833191  0.26543524  0.15565258     0.40100
H1964       H  0.89929792  0.30717456  0.16923674     0.35000
C1965       C  0.78504608  0.13941885  0.06650868    -0.26800
C1966       C  0.75252401  0.12689622  0.05664328    -0.14800
C1967       C  0.71798421  0.14295508  0.06409648     0.35800
C1968       C  0.71673839  0.17307239  0.07982585    -0.26200
C1969       C  0.74929580  0.18566938  0.08966090    -0.15400
C1970       C  0.78356209  0.16775072  0.08367606     0.36900
N1971       N  0.81666519  0.17746199  0.09542627    -0.89700
H1972       H  0.81152087  0.12611226  0.06154515     0.18000
H1973       H  0.69013046  0.18550538  0.08534557     0.18000
N1974       N  0.68396988  0.12824319  0.05669829    -0.88700
H1975       H  0.83597795  0.18324087  0.08263070     0.35400
H1976       H  0.82731133  0.15442068  0.10423114     0.40500
H1977       H  0.68244538  0.12878767  0.03836146     0.40100
H1978       H  0.68427620  0.10090876  0.06170907     0.35000
C1979       C  0.71731235  0.43793132  0.08355315    -0.26800
C1980       C  0.74489270  0.43747063  0.06620795    -0.14800
C1981       C  0.77340241  0.40938984  0.06576644     0.35800
C1982       C  0.77207713  0.38080263  0.08131450    -0.26200
C1983       C  0.74311201  0.37990909  0.09748808    -0.15400
C1984       C  0.71647620  0.40928525  0.09943391     0.36900
N1985       N  0.68803066  0.40941042  0.11687216    -0.89700
H1986       H  0.69576968  0.45980528  0.08417784     0.18000
H1987       H  0.79307786  0.35840822  0.08019078     0.18000
N1988       N  0.80360153  0.40898391  0.04948238    -0.88700
H1989       H  0.66251413  0.41122044  0.10828143     0.35400
H1990       H  0.68980882  0.43305994  0.12749879     0.40500
H1991       H  0.81654090  0.43368223  0.05157439     0.40100
H1992       H  0.79336998  0.40709054  0.03234674     0.35000
C1993       C  0.74859096  0.10271897  0.91679930    -0.26800
C1994       C  0.77402289  0.10239622  0.93546512    -0.14800
C1995       C  0.79976518  0.12966565  0.93707184     0.35800
C1996       C  0.79655448  0.15928269  0.92204682    -0.26200
C1997       C  0.76893354  0.16145020  0.90472667    -0.15400
C1998       C  0.74617724  0.13187864  0.90120072     0.36900
N1999       N  0.71876860  0.13266872  0.88304020    -0.89700
H2000       H  0.72893041  0.08157898  0.91527906     0.18000
H2001       H  0.81440874  0.18169624  0.92489441     0.18000
N2002       N  0.82776806  0.12839923  0.95487762    -0.88700
H2003       H  0.69286181  0.13125263  0.89091029     0.35400
H2004       H  0.72359762  0.10928068  0.87220385     0.40500
H2005       H  0.85345138  0.12852583  0.94654316     0.40100
H2006       H  0.82435844  0.15229402  0.96540421     0.35000
C2007       C  0.77164511  0.38765035  0.94921444    -0.26800
C2008       C  0.74397438  0.41573001  0.94711202    -0.14800
C2009       C  0.71698687  0.41317500  0.92937448     0.35800
C2010       C  0.71958492  0.38375252  0.91310822    -0.26200
C2011       C  0.74825012  0.35629270  0.91452920    -0.15400
C2012       C  0.77404938  0.35795274  0.93309417     0.36900
N2013       N  0.80387268  0.33067254  0.93497052    -0.89700
H2014       H  0.79223247  0.38946712  0.96297269     0.18000
H2015       H  0.69932516  0.38255241  0.89912356     0.18000
N2016       N  0.68678008  0.44005249  0.92757220    -0.88700
H2017       H  0.80214715  0.31884300  0.95143286     0.35400
H2018       H  0.82864787  0.34385089  0.93436514     0.40500
H2019       H  0.67235217  0.44130559  0.94351645     0.40100
H2020       H  0.69733846  0.46561375  0.92496483     0.35000
C2021       C  0.97574545  0.11712856  0.70685971    -0.26800
C2022       C  0.50345279  0.09292298  0.71307138    -0.14800
C2023       C  0.52964176  0.10063455  0.73073460     0.35800
C2024       C  0.53029209  0.13619986  0.74094174    -0.26200
C2025       C  0.50554973  0.16540980  0.73399303    -0.15400
C2026       C  0.97581457  0.15265542  0.71724405     0.36900
N2027       N  0.94627296  0.17895009  0.71200908    -0.89700
H2028       H  0.95394093  0.11109748  0.69454765     0.18000
H2029       H  0.55046691  0.14019270  0.75455468     0.18000
N2030       N  0.55687532  0.07339011  0.73820834    -0.88700
H2031       H  0.94552193  0.18214926  0.69379551     0.35400
H2032       H  0.92146361  0.16827523  0.71707870     0.40500
H2033       H  0.57279528  0.06413576  0.72367438     0.40100
H2034       H  0.54335503  0.05143663  0.74489064     0.35000
C2035       C  0.52442575  0.30800413  0.70249027    -0.26800
C2036       C  0.99778153  0.30103756  0.71876617    -0.14800
C2037       C  0.97232039  0.33073864  0.72458569     0.35800
C2038       C  0.97133695  0.36278829  0.71136171    -0.26200
C2039       C  0.99545030  0.36605063  0.69236030    -0.15400
C2040       C  0.52231786  0.33957074  0.68885048     0.36900
N2041       N  0.54826154  0.34187242  0.67004064    -0.89700
H2042       H  0.54566776  0.28657718  0.69856156     0.18000
H2043       H  0.95226264  0.38565375  0.71638619     0.18000
N2044       N  0.94694190  0.32836507  0.74367329    -0.88700
H2045       H  0.56408414  0.36443270  0.67331943     0.35400
H2046       H  0.53354074  0.34594901  0.65441518     0.40500
H2047       H  0.92011806  0.33204449  0.73703220     0.40100
H2048       H  0.95110012  0.34991778  0.75568677     0.35000
C2049       C  0.60651418  0.26292705  0.76694300    -0.26800
C2050       C  0.57439520  0.26156408  0.78057247    -0.14800
C2051       C  0.57689149  0.26726168  0.80513763     0.35800
C2052       C  0.61137284  0.27235985  0.81564860    -0.26200
C2053       C  0.64413369  0.27109622  0.80221629    -0.15400
C2054       C  0.64114033  0.26766807  0.77742207     0.36900
N2055       N  0.67322276  0.26771507  0.76274670    -0.89700
H2056       H  0.60495945  0.25857853  0.74803370     0.18000
H2057       H  0.61267984  0.27503711  0.83465344     0.18000
N2058       N  0.54515159  0.26611518  0.81995221    -0.88700
H2059       H  0.66886744  0.28851229  0.75061717     0.35400
H2060       H  0.67569832  0.24269997  0.75332241     0.40500
H2061       H  0.53361313  0.24078767  0.81724004     0.40100
H2062       H  0.52597532  0.28678880  0.81479673     0.35000
C2063       C  0.93744412  0.27968390  0.80235258    -0.26800
C2064       C  0.93713899  0.26367175  0.77959704    -0.14800
C2065       C  0.90305328  0.26100581  0.76787865     0.35800
C2066       C  0.87005118  0.27131890  0.77963551    -0.26200
C2067       C  0.87007117  0.28426715  0.80305770    -0.15400
C2068       C  0.90418464  0.28967156  0.81428707     0.36900
N2069       N  0.90583856  0.30273819  0.83819496    -0.89700
H2070       H  0.96337552  0.28220083  0.81147011     0.18000
H2071       H  0.84404242  0.26744329  0.77073662     0.18000
N2072       N  0.90181329  0.24701473  0.74411042    -0.88700
H2073       H  0.89295890  0.28426073  0.84865932     0.35400
H2074       H  0.89102934  0.32814469  0.83959603     0.40500
H2075       H  0.88833765  0.26701238  0.73386027     0.40100
H2076       H  0.88598519  0.22400313  0.74379356     0.35000
C2077       C  0.86345359  0.49344117  0.73663825    -0.26800
C2078       C  0.83075744  0.49662280  0.72336725    -0.14800
C2079       C  0.83320878  0.00061518  0.70029592     0.35800
C2080       C  0.86773757  0.99428005  0.68921213    -0.26200
C2081       C  0.90115349  0.48882214  0.70097611    -0.15400
C2082       C  0.89829580  0.48917292  0.72589475     0.36900
N2083       N  0.92998867  0.48594212  0.74091978    -0.89700
H2084       H  0.86188853  0.49507268  0.75568674     0.18000
H2085       H  0.86821323  0.99061295  0.67023660     0.18000
N2086       N  0.80090493  0.00421049  0.68584157    -0.88700
H2087       H  0.94744882  0.50680520  0.73721246     0.35400
H2088       H  0.94379996  0.46035491  0.73775149     0.40500
H2089       H  0.78737456  0.02978389  0.68957655     0.40100
H2090       H  0.78330953  0.98374255  0.68995886     0.35000
C2091       C  0.68927417  0.52365815  0.69403962    -0.26800
C2092       C  0.69486860  0.00756762  0.71892037    -0.14800
C2093       C  0.66436291  0.99279142  0.72977415     0.35800
C2094       C  0.63101757  0.99025516  0.71744385    -0.26200
C2095       C  0.62691894  0.00325020  0.69452522    -0.15400
C2096       C  0.65769824  0.01682719  0.68329830     0.36900
N2097       N  0.64866188  0.54083149  0.66089821    -0.89700
H2098       H  0.71037484  0.53989087  0.68682214     0.18000
H2099       H  0.60761814  0.97957333  0.72627307     0.18000
N2100       N  0.66663692  0.98185491  0.75375967    -0.88700
H2101       H  0.67448624  0.01219109  0.64947792     0.35400
H2102       H  0.66154499  0.05540820  0.65885649     0.40500
H2103       H  0.66599944  0.44412675  0.74710202     0.40100
H2104       H  0.65119954  0.48512393  0.75911043     0.35000
C2105       C  0.78274326  0.09598074  0.79355865    -0.26800
C2106       C  0.75108471  0.07914339  0.78532105    -0.14800
C2107       C  0.71625048  0.09324422  0.79455830     0.35800
C2108       C  0.71367859  0.12751858  0.80662509    -0.26200
C2109       C  0.74527077  0.14665260  0.81168005    -0.15400
C2110       C  0.78020181  0.12908236  0.80660292     0.36900
N2111       N  0.81345036  0.14468573  0.81467729    -0.89700
H2112       H  0.81006333  0.08358613  0.79012014     0.18000
H2113       H  0.68672916  0.13926230  0.81196354     0.18000
N2114       N  0.68323590  0.07343063  0.79291181    -0.88700
H2115       H  0.82991077  0.14899223  0.80003634     0.35400
H2116       H  0.82771271  0.12564383  0.82525805     0.40500
H2117       H  0.68852344  0.04635533  0.78708480     0.40100
H2118       H  0.66524580  0.08672161  0.78108319     0.35000
C2119       C  0.73907487  0.41289034  0.76067660    -0.26800
C2120       C  0.75528442  0.44199185  0.77291894    -0.14800
C2121       C  0.77197894  0.43494384  0.79491613     0.35800
C2122       C  0.76912806  0.40089145  0.80508236    -0.26200
C2123       C  0.75133831  0.37253886  0.79350058    -0.15400
C2124       C  0.73689161  0.37832978  0.77078451     0.36900
N2125       N  0.71868813  0.35025709  0.75808794    -0.89700
H2126       H  0.72731498  0.41708669  0.74339958     0.18000
H2127       H  0.78171879  0.39635704  0.82214934     0.18000
N2128       N  0.79327174  0.46169689  0.80669968    -0.88700
H2129       H  0.69683977  0.34245299  0.76844094     0.35400
H2130       H  0.73741123  0.32760822  0.75560427     0.40500
H2131       H  0.82016198  0.45030010  0.80885232     0.40100
H2132       H  0.78187829  0.46717312  0.82341160     0.35000
C2133       C  0.59925978  0.30159786  0.07645829    -0.26800
C2134       C  0.58585038  0.26861842  0.06794342    -0.14800
C2135       C  0.59472241  0.23609784  0.07984704     0.35800
C2136       C  0.61792218  0.23673576  0.09960429    -0.26200
C2137       C  0.63285033  0.26948341  0.10773865    -0.25000
C2138       C  0.62249638  0.30242901  0.09620005     0.36900
N2139       N  0.63610258  0.33672185  0.10397775    -0.89700
H2140       H  0.59159728  0.32689262  0.06768740     0.18000
H2141       H  0.62536443  0.21108947  0.10800144     0.18000
N2142       N  0.58050246  0.20229193  0.07170888    -0.88700
H2143       H  0.61344223  0.35490189  0.10791284     0.35400
H2144       H  0.65057418  0.34726871  0.09004292     0.40500
H2145       H  0.60292245  0.18373529  0.06790241     0.40100
H2146       H  0.56549936  0.19187336  0.08544478     0.35000
C2147       C  0.89729633  0.31357271  0.07433399    -0.26800
C2148       C  0.89518467  0.28330678  0.05863000    -0.14800
C2149       C  0.86751259  0.25848308  0.06205171     0.35800
C2150       C  0.84244667  0.26468193  0.08061909    -0.26200
C2151       C  0.84530309  0.29400711  0.09699947    -0.15400
C2152       C  0.87297536  0.31889427  0.09356850     0.36900
N2153       N  0.87641010  0.34972677  0.10934798    -0.89700
H2154       H  0.91878559  0.33255015  0.07204314     0.18000
H2155       H  0.82064583  0.24604743  0.08234749     0.18000
N2156       N  0.86514717  0.22596796  0.04757581    -0.88700
H2157       H  0.87353449  0.37355863  0.09958535     0.35400
H2158       H  0.90304448  0.34801872  0.11645419     0.40500
H2159       H  0.86052133  0.23345976  0.03019222     0.40100
H2160       H  0.89036675  0.21062291  0.04842041     0.35000
C2161       C  0.62100115  0.28200159  0.94017916    -0.26800
C2162       C  0.59949594  0.25240541  0.94464462    -0.14800
C2163       C  0.60399367  0.22017942  0.93037976     0.35800
C2164       C  0.62922815  0.21848077  0.91168869    -0.26200
C2165       C  0.65048060  0.24833052  0.90686430    -0.15400
C2166       C  0.64637781  0.28044628  0.92143846     0.36900
N2167       N  0.66736214  0.31166298  0.91696193    -0.89700
H2168       H  0.61701235  0.30688958  0.95092888     0.18000
H2169       H  0.63257335  0.19341030  0.90106121     0.18000
N2170       N  0.58328902  0.18882513  0.93456451    -0.88700
H2171       H  0.66147135  0.33266718  0.92950726     0.35400
H2172       H  0.65879408  0.32188396  0.90072216     0.40500
H2173       H  0.58845880  0.18070240  0.95180249     0.40100
H2174       H  0.55516913  0.19643742  0.93305606     0.35000
C2175       C  0.87972151  0.30196757  0.90336345    -0.26800
C2176       C  0.86465259  0.26983791  0.89435717    -0.14800
C2177       C  0.87567277  0.23589882  0.90451459     0.35800
C2178       C  0.89770686  0.23561282  0.92492949    -0.26200
C2179       C  0.91047197  0.26817018  0.93470398    -0.15400
C2180       C  0.90261030  0.30137824  0.92317130     0.36900
N2181       N  0.91747528  0.33491742  0.93127905    -0.89700
H2182       H  0.87261155  0.32814273  0.89552993     0.18000
H2183       H  0.90557188  0.20983604  0.93307010     0.18000
N2184       N  0.86448177  0.20193570  0.89421625    -0.88700
H2185       H  0.94629184  0.33129807  0.93119546     0.35400
H2186       H  0.90873370  0.34047506  0.94858310     0.40500
H2187       H  0.87508695  0.17968314  0.90381019     0.40100
H2188       H  0.87642201  0.19898209  0.87748706     0.35000
C2189       C  0.86358422  0.48870150  0.31195720    -0.26800
C2190       C  0.89678446  0.48810612  0.29903381    -0.14800
C2191       C  0.89507944  0.49682956  0.27502406     0.35800
C2192       C  0.86065937  0.50554065  0.26447579    -0.26200
C2193       C  0.82762945  0.50598177  0.27744907    -0.15400
C2194       C  0.82932294  0.49743871  0.30146518     0.36900
N2195       N  0.79692691  0.49905248  0.31590333    -0.89700
H2196       H  0.86411828  0.48228625  0.33045361     0.18000
H2197       H  0.85976481  0.51270714  0.24610125     0.18000
N2198       N  0.92821012  0.49808721  0.26145599    -0.88700
H2199       H  0.77877374  0.48025455  0.30917652     0.35400
H2200       H  0.78430004  0.52542226  0.31503312     0.40500
H2201       H  0.92933322  0.52452740  0.25501592     0.40100
H2202       H  0.92653701  0.47977227  0.24708674     0.35000
C2203       C  0.64653497  0.52363911  0.31614664    -0.26800
C2204       C  0.62633756  0.99518736  0.30633538    -0.14800
C2205       C  0.64099882  0.97343358  0.28718630     0.35800
C2206       C  0.67584409  0.98026803  0.27781778    -0.26200
C2207       C  0.69556390  0.50915452  0.28744791    -0.15400
C2208       C  0.68041959  0.53147424  0.30627886     0.36900
N2209       N  0.69911593  0.56167367  0.31630243    -0.89700
H2210       H  0.63483679  0.54197985  0.32986797     0.18000
H2211       H  0.68604283  0.96423928  0.26264233     0.18000
N2212       N  0.61977305  0.94587540  0.27622550    -0.88700
H2213       H  0.70155307  0.58192240  0.30397063     0.35400
H2214       H  0.72547703  0.55209348  0.32152213     0.40500
H2215       H  0.63525492  0.92083578  0.27672147     0.40100
H2216       H  0.61583622  0.95243537  0.25857828     0.35000
C2217       C  0.73074791  0.13074059  0.24196004    -0.26800
C2218       C  0.75383242  0.10082938  0.23327778    -0.14800
C2219       C  0.77834986  0.10752002  0.21470628     0.35800
C2220       C  0.77701120  0.14181054  0.20406660    -0.26200
C2221       C  0.75239816  0.17074615  0.21184505    -0.15400
C2222       C  0.72982916  0.16525828  0.23147945     0.36900
N2223       N  0.70502991  0.19426737  0.24052111    -0.89700
H2224       H  0.71328259  0.12821313  0.25707638     0.18000
H2225       H  0.79514660  0.14557363  0.18929900     0.18000
N2226       N  0.80478228  0.07937815  0.20643970    -0.88700
H2227       H  0.71153546  0.19911605  0.25821163     0.35400
H2228       H  0.67816730  0.18537207  0.23969078     0.40500
H2229       H  0.83115090  0.08919228  0.20835104     0.40100
H2230       H  0.80009546  0.07449740  0.18850732     0.35000
C2231       C  0.72141307  0.41500043  0.19826933    -0.26800
C2232       C  0.75448050  0.39292805  0.19611120    -0.14800
C2233       C  0.78700058  0.40577707  0.20629708     0.35800
C2234       C  0.78573813  0.43957303  0.21881652    -0.26200
C2235       C  0.75272865  0.46134852  0.22105843    -0.15400
C2236       C  0.72032950  0.44911604  0.21033274     0.36900
N2237       N  0.68590989  0.47046860  0.21169467    -0.89700
H2238       H  0.69618119  0.40567995  0.19052988     0.18000
H2239       H  0.81071380  0.44878323  0.22697590     0.18000
N2240       N  0.82114146  0.38401931  0.20475528    -0.88700
H2241       H  0.68930336  0.49563886  0.20394467     0.35400
H2242       H  0.67913466  0.47548841  0.22937364     0.40500
H2243       H  0.83022419  0.37868305  0.22184761     0.40100
H2244       H  0.84063551  0.39951303  0.19669411     0.35000
C2245       C  0.75272080  0.56201518  0.24371713     0.86000
C2246       C  0.74991975  0.52995754  0.22569986    -0.54200
C2247       C  0.75387205  0.99656976  0.23527656     0.09000
C2248       C  0.75982930  0.99717896  0.26219457     0.19900
C2249       C  0.72236399  0.55523989  0.26188339    -0.54900
C2250       C  0.72702110  0.02198116  0.27216041     0.09100
C2251       C  0.78909221  0.55346710  0.25688440    -0.54400
C2252       C  0.79440455  0.01951007  0.26605542     0.09600
H2253       H  0.74720695  0.03495655  0.20728902     0.14200
H2254       H  0.76224971  0.96935455  0.26962069    -0.00100
H2255       H  0.69841499  0.57355438  0.26531280     0.14500
H2256       H  0.81089544  0.57255701  0.25828386     0.14300
N2257       N  0.94129467  0.78001464  0.99596713    -0.37100
N2258       N  0.49453697  0.77623421  0.03811370    -0.57600
N2259       N  0.55680192  0.76860936  0.00466217    -0.37000
N2260       N  0.50508752  0.76944966  0.96561089    -0.57600
C2261       C  0.91770848  0.79074473  0.01364689     0.26500
C2262       C  0.92357011  0.78626799  0.97535783     0.26500
C2263       C  0.57497631  0.76262034  0.02515008     0.26500
C2264       C  0.58021091  0.75770398  0.98681558     0.26500
C2265       C  0.96044618  0.77904553  0.04773830     0.35200
C2266       C  0.52256811  0.77490675  0.05377888     0.35200
C2267       C  0.97617903  0.77105134  0.94759457     0.35200
C2268       C  0.53693954  0.76879532  0.95324147     0.35200
C2269       C  0.88435442  0.80371763  0.00411024    -0.22300
C2270       C  0.88793922  0.80054906  0.97998303    -0.22300
C2271       C  0.61062714  0.74853604  0.02025873    -0.22300
C2272       C  0.61384422  0.74525936  0.99612230    -0.22300
C2273       C  0.96722134  0.77261769  0.07134854    -0.23400
C2274       C  0.50863323  0.77719678  0.07652458    -0.23400
C2275       C  0.99048318  0.76442066  0.92517141    -0.23400
C2276       C  0.52955259  0.77561669  0.92979497    -0.23400
C2277       C  0.92484650  0.78739681  0.03810324    -0.18700
C2278       C  0.93825565  0.77842827  0.95251895    -0.18700
C2279       C  0.57252247  0.75987497  0.96236069    -0.18700
C2280       C  0.56056083  0.76942271  0.04820077    -0.18700
H2281       H  0.85978208  0.81392995  0.01355887     0.14200
H2282       H  0.86675785  0.80805311  0.96730148     0.14200
H2283       H  0.63198719  0.74083193  0.03280298     0.14200
H2284       H  0.63820073  0.73485820  0.98652170     0.14200
H2285       H  0.94726211  0.77157403  0.08541449     0.12500
H2286       H  0.52389780  0.77640887  0.09288521     0.12500
H2287       H  0.97556021  0.76292405  0.90870747     0.12500
H2288       H  0.54914746  0.77683757  0.91553036     0.12500
H2289       H  0.96649121  0.76552760  0.99785541     0.25700
H2290       H  0.53123791  0.78255557  0.00306897     0.25700
C2291       C  0.75640398  0.54649814  0.76298181     0.86000
C2292       C  0.79324669  0.53929522  0.74945847    -0.54200
C2293       C  0.79547059  0.01410459  0.73777512     0.09000
C2294       C  0.76158924  0.99004626  0.73785895     0.19900
C2295       C  0.72755822  0.54606026  0.74327366    -0.54900
C2296       C  0.72757602  0.01659863  0.73332335     0.09100
C2297       C  0.75202119  0.51105010  0.77632342    -0.54400
C2298       C  0.75785013  0.97975765  0.76378265     0.09600
H2299       H  0.81593348  0.55717890  0.74955106     0.14200
H2300       H  0.76397842  0.96571058  0.72573568    -0.00100
H2301       H  0.70705801  0.56835029  0.74046557     0.14500
H2302       H  0.75098106  0.00690502  0.79787252     0.14300
C2303       C  0.50980225  0.70517489  0.74229921     0.86000
C2304       C  0.00960022  0.73236672  0.72528992    -0.54200
C2305       C  0.00729613  0.76750025  0.73464530     0.09000
C2306       C  0.00814508  0.76905246  0.76177229     0.19900
C2307       C  0.54386548  0.71493620  0.75687825    -0.54900
C2308       C  0.54263646  0.75001022  0.76601109     0.09100
C2309       C  0.97761009  0.71152638  0.75976804    -0.54400
C2310       C  0.97517193  0.74673396  0.76866556     0.09600
H2311       H  0.00941255  0.72664657  0.70645210     0.14200
H2312       H  0.00709443  0.79741300  0.76934785    -0.00100
H2313       H  0.56823547  0.69689897  0.75924680     0.14500
H2314       H  0.95604546  0.69264235  0.76242627     0.14300
N2315       N  0.74871017  0.96723715  0.00422795    -0.37100
N2316       N  0.74595293  0.52859605  0.03731372    -0.57600
N2317       N  0.75754213  0.57546579  0.99789238    -0.37000
N2318       N  0.75357752  0.51396576  0.96515244    -0.57600
C2319       C  0.73805066  0.95212261  0.02434189     0.26500
C2320       C  0.73873041  0.94497097  0.98618863     0.26500
C2321       C  0.74910018  0.60098460  0.01507606     0.26500
C2322       C  0.75575880  0.59272222  0.97712417     0.26500
C2323       C  0.75395952  0.00150281  0.05273353     0.35200
C2324       C  0.75214676  0.55987674  0.04937286     0.35200
C2325       C  0.76097761  0.98162821  0.95358737     0.35200
C2326       C  0.76720032  0.53826201  0.95050999     0.35200
C2327       C  0.72116452  0.91982209  0.01909067    -0.22300
C2328       C  0.72137845  0.91542714  0.99496624    -0.22300
C2329       C  0.74250194  0.63497201  0.00511266    -0.22300
C2330       C  0.74630306  0.62970542  0.98120208    -0.22300
C2331       C  0.76228060  0.01515522  0.07497004    -0.23400
C2332       C  0.75860206  0.55267367  0.07291906    -0.23400
C2333       C  0.77629467  0.98534240  0.93151013    -0.23400
C2334       C  0.78043314  0.52050836  0.93009926    -0.23400
C2335       C  0.74622759  0.96501557  0.04730884    -0.18700
C2336       C  0.74800476  0.94891236  0.96228222    -0.18700
C2337       C  0.76520006  0.57649789  0.95479840    -0.18700
C2338       C  0.74993997  0.59496277  0.03957189    -0.18700
H2339       H  0.71033774  0.90109382  0.03140048     0.14200
H2340       H  0.71083301  0.89259394  0.98504668     0.14200
H2341       H  0.73613667  0.66107308  0.01410699     0.14200
H2342       H  0.74309481  0.65093429  0.96834035     0.14200
H2343       H  0.76546443  0.00011966  0.09105113     0.12500
H2344       H  0.76355669  0.57211037  0.08711042     0.12500
H2345       H  0.78166418  0.96411881  0.91807751     0.12500
H2346       H  0.79254038  0.53269353  0.91502298     0.12500
H2347       H  0.76630704  0.98855932  0.00319941     0.25700
H2348       H  0.76830035  0.54888664  0.00036792     0.25700
O2349       O  0.77007440  0.79794616  0.89719594    -0.80600
O2350       O  0.71122328  0.75488664  0.80206468    -0.80600
O2351       O  0.74190328  0.83978990  0.82507519    -0.80600
O2352       O  0.67746021  0.72038652  0.87005761    -0.80600
O2353       O  0.76322558  0.80613301  0.79508753    -0.80700
O2354       O  0.71017486  0.76224661  0.88765232    -0.80600
O2355       O  0.68301140  0.77155364  0.83545075    -0.80600
O2356       O  0.74398302  0.83628251  0.87287548    -0.80600
C2357       C  0.75387533  0.82888179  0.89357075     1.09100
C2358       C  0.68207120  0.76674835  0.81322771     1.09000
C2359       C  0.75034565  0.83680490  0.80365207     1.09100
C2360       C  0.68144514  0.74294529  0.88717245     1.09000
O2361       O  0.77157204  0.72510768  0.90327069    -0.80600
O2362       O  0.81937247  0.75590744  0.81360539    -0.80700
O2363       O  0.82104929  0.80795575  0.86956178    -0.80600
O2364       O  0.71503472  0.69850557  0.82853733    -0.80600
O2365       O  0.77178297  0.70448185  0.81899364    -0.80600
O2366       O  0.81837071  0.74809982  0.87014381    -0.80600
O2367       O  0.75004299  0.69831157  0.87120434    -0.80500
O2368       O  0.82015460  0.81493342  0.82220277    -0.80600
Co2369     Co  0.76494777  0.75342657  0.87624147     1.51500
Co2370     Co  0.76597082  0.75560975  0.80948250     1.51700
Co2371     Co  0.77963821  0.82209110  0.84726120     1.51600
Co2372     Co  0.71778524  0.73918411  0.85346878     1.51500
O2373       O  0.75862876  0.77152834  0.84365771    -1.42500
C2374       C  0.76352670  0.69610602  0.89230092     1.09000
C2375       C  0.83564164  0.78536643  0.81346961     1.09100
C2376       C  0.83522554  0.77662700  0.87520117     1.09100
C2377       C  0.74452306  0.68502953  0.81894671     1.09000
O2378       O  0.72847378  0.83850738  0.18478066    -0.80600
O2379       O  0.68335151  0.79630350  0.12988382    -0.80600
O2380       O  0.75102049  0.84370425  0.13140067    -0.80600
O2381       O  0.67981581  0.72670280  0.17707222    -0.80600
O2382       O  0.73348738  0.81801900  0.09783402    -0.80700
O2383       O  0.67870880  0.78521362  0.18811514    -0.80600
O2384       O  0.67928024  0.73645638  0.13029647    -0.80600
O2385       O  0.78559721  0.84104475  0.17389072    -0.80600
C2386       C  0.75714011  0.85629756  0.18376169     1.09100
C2387       C  0.66603632  0.76819178  0.12453249     1.09000
C2388       C  0.74205558  0.84618943  0.10949807     1.09100
C2389       C  0.66258268  0.75553173  0.18548909     1.09000
O2390       O  0.73514912  0.73389384  0.20512900    -0.80600
O2391       O  0.79181171  0.77873071  0.11457216    -0.80700
O2392       O  0.81463790  0.76776161  0.16544740    -0.80600
O2393       O  0.75698864  0.70772223  0.12764842    -0.80600
O2394       O  0.73058446  0.74575595  0.10335003    -0.80600
O2395       O  0.78823945  0.78451848  0.19951757    -0.80600
O2396       O  0.75715974  0.70052277  0.17510369    -0.80500
O2397       O  0.82293338  0.82096943  0.13263171    -0.80600
Co2398     Co  0.73290497  0.78544453  0.19220507     1.51500
Co2399     Co  0.73676599  0.78927296  0.12483450     1.51700
Co2400     Co  0.78178396  0.80194915  0.14836036     1.51600
Co2401     Co  0.72036582  0.72048395  0.15275725     1.51500
O2402       O  0.74025312  0.77091476  0.15763365    -1.42500
C2403       C  0.74931478  0.70356966  0.19666029     1.09000
C2404       C  0.81936589  0.79951822  0.11495651     1.09100
C2405       C  0.81653377  0.77198088  0.18757773     1.09100
C2406       C  0.74666572  0.71494472  0.10708736     1.09000
O2407       O  0.02180342  0.52453895  0.70469487    -0.80600
O2408       O  0.95561913  0.97297611  0.61448653    -0.80600
O2409       O  0.48937857  0.55155893  0.62954882    -0.80600
O2410       O  0.93651929  0.98689138  0.66657526    -0.80600
O2411       O  0.01414916  0.51216218  0.60241662    -0.80700
O2412       O  0.96711248  0.47399047  0.69881149    -0.80600
O2413       O  0.92716995  0.93127397  0.63370452    -0.80600
O2414       O  0.49633711  0.55919045  0.67644974    -0.80600
C2415       C  0.50658107  0.55700605  0.69750903     1.09100
C2416       C  0.92818295  0.95222856  0.61638293     1.09000
C2417       C  0.49511601  0.54369586  0.60817478     1.09100
C2418       C  0.93693914  0.98501766  0.68884710     1.09000
O2419       O  0.52232885  0.92318502  0.68097392    -0.80600
O2420       O  0.56396884  0.96458592  0.62606369    -0.80700
O2421       O  0.57328484  0.53030874  0.67370598    -0.80600
O2422       O  0.99904384  0.91078082  0.62747331    -0.80600
O2423       O  0.51177845  0.94373608  0.59491598    -0.80600
O2424       O  0.57272488  0.97403529  0.68452234    -0.80600
O2425       O  0.96769148  0.91524797  0.67266422    -0.80500
O2426       O  0.56662938  0.52065224  0.62638494    -0.80600
Co2427     Co  0.51941082  0.97596075  0.69039979     1.51500
Co2428     Co  0.01192269  0.96611035  0.62273971     1.51700
Co2429     Co  0.52939832  0.53764486  0.65176625     1.51600
Co2430     Co  0.96894544  0.95268415  0.64744482     1.51500
O2431       O  0.01017829  0.98581987  0.65581257    -1.42500
C2432       C  0.99708185  0.90127511  0.68139189     1.09000
C2433       C  0.57850786  0.48836772  0.61974763     1.09100
C2434       C  0.58933845  0.50134611  0.68184963     1.09100
C2435       C  0.00890982  0.90862675  0.60543052     1.09000
O2436       O  0.57183894  0.96266574  0.31256953    -0.80600
O2437       O  0.51947938  0.93336152  0.40275961    -0.80600
O2438       O  0.56648220  0.51273597  0.37157625    -0.80600
O2439       O  0.96188718  0.90859587  0.32532018    -0.80600
O2440       O  0.56801484  0.95707862  0.37120668    -0.80700
O2441       O  0.52117139  0.90963838  0.31546149    -0.80600
O2442       O  0.99388373  0.90372208  0.36977865    -0.80600
O2443       O  0.57073895  0.51998145  0.32432036    -0.80600
C2444       C  0.58799973  0.49108145  0.31590292     1.09100
C2445       C  0.00509376  0.90125826  0.39146151     1.09000
C2446       C  0.58293582  0.98616419  0.37758394     1.09100
C2447       C  0.98999979  0.89239002  0.31582430     1.09000
O2448       O  0.96305658  0.96480498  0.29962547    -0.80600
O2449       O  0.01039813  0.50486719  0.39540163    -0.80700
O2450       O  0.49346226  0.54705139  0.32298766    -0.80600
O2451       O  0.92282624  0.92799552  0.36470520    -0.80600
O2452       O  0.95505951  0.96647646  0.38546783    -0.80600
O2453       O  0.51817789  0.51396174  0.29382111    -0.80600
O2454       O  0.93530978  0.98198959  0.33325015    -0.80500
O2455       O  0.48828953  0.54177940  0.36976838    -0.80600
Co2456     Co  0.51783383  0.96265221  0.30784165     1.51500
Co2457     Co  0.01098899  0.95775232  0.37582422     1.51700
Co2458     Co  0.52788572  0.52771833  0.34686311     1.51600
Co2459     Co  0.96571077  0.94653715  0.35122116     1.51500
O2460       O  0.50975634  0.97773334  0.34249305    -1.42500
C2461       C  0.93468888  0.97866091  0.31098714     1.09000
C2462       C  0.49474261  0.53526530  0.39099417     1.09100
C2463       C  0.50268723  0.54396909  0.30169028     1.09100
C2464       C  0.92630706  0.94746023  0.38322132     1.09000
N2465       N  0.97175353  0.66837972  0.49811878    -0.37100
N2466       N  0.98638178  0.72174792  0.53410680    -0.57600
N2467       N  0.99608624  0.77471845  0.49757132    -0.37000
N2468       N  0.97832175  0.72076493  0.46136264    -0.57600
C2469       C  0.96311922  0.65023752  0.51750240     0.26500
C2470       C  0.95764524  0.65039492  0.47949794     0.26500
C2471       C  0.99282546  0.79699032  0.51697189     0.26500
C2472       C  0.99054099  0.79592532  0.47860418     0.26500
C2473       C  0.99143562  0.69107147  0.54672566     0.35200
C2474       C  0.00111079  0.74892184  0.54685135     0.35200
C2475       C  0.98133211  0.68902496  0.44860865     0.35200
C2476       C  0.99314943  0.74623015  0.44814988     0.35200
C2477       C  0.94236802  0.62081133  0.51126622    -0.22300
C2478       C  0.93886062  0.62092748  0.48716024    -0.22300
C2479       C  0.98513394  0.83286328  0.51018583    -0.22300
C2480       C  0.98394876  0.83220453  0.48595289    -0.22300
C2481       C  0.00927885  0.69882116  0.56768356    -0.23400
C2482       C  0.01522928  0.73562638  0.56781924    -0.23400
C2483       C  0.99816489  0.69438352  0.42717136    -0.23400
C2484       C  0.00508217  0.73093912  0.42672706    -0.23400
C2485       C  0.97823619  0.65677863  0.53992877    -0.18700
C2486       C  0.96773050  0.65581446  0.45599020    -0.18700
C2487       C  0.99408285  0.78346683  0.45490380    -0.18700
C2488       C  0.99948286  0.78599649  0.54042019    -0.18700
H2489       H  0.93264923  0.60027615  0.52273566     0.14200
H2490       H  0.92606165  0.60035560  0.47636477     0.14200
H2491       H  0.98135315  0.85713604  0.52147600     0.14200
H2492       H  0.97915597  0.85577408  0.47499600     0.14200
H2493       H  0.01689119  0.68007611  0.58151457     0.12500
H2494       H  0.02834811  0.75089204  0.58175430     0.12500
H2495       H  0.00446018  0.67420027  0.41323556     0.12500
H2496       H  0.01783724  0.74461053  0.41246800     0.12500
H2497       H  0.99190556  0.68735956  0.49722632     0.25700
H2498       H  0.00588476  0.74738169  0.49714047     0.25700
N2499       N  0.69418419  0.97527928  0.49970469    -0.37100
N2500       N  0.74980445  0.96285880  0.53658294    -0.57600
N2501       N  0.80712706  0.95516586  0.50120860    -0.37000
N2502       N  0.75182917  0.96394080  0.46436942    -0.57600
C2503       C  0.67220625  0.97160823  0.51867403     0.26500
C2504       C  0.67322702  0.97165725  0.48005934     0.26500
C2505       C  0.82610297  0.94350782  0.52033889     0.26500
C2506       C  0.82738958  0.94421201  0.48208036     0.26500
C2507       C  0.72054790  0.97473832  0.54996091     0.35200
C2508       C  0.77981440  0.96422978  0.55064222     0.35200
C2509       C  0.72336149  0.97464585  0.45027624     0.35200
C2510       C  0.78282577  0.96516962  0.45128959     0.35200
C2511       C  0.63656791  0.96611692  0.51101276    -0.22300
C2512       C  0.63720676  0.96618489  0.48667449    -0.22300
C2513       C  0.85883875  0.92486234  0.51332565    -0.22300
C2514       C  0.85963633  0.92526466  0.48909950    -0.22300
C2515       C  0.73208940  0.98345195  0.57263896    -0.23400
C2516       C  0.76962835  0.97670397  0.57306515    -0.23400
C2517       C  0.73634378  0.98218306  0.42810365    -0.23400
C2518       C  0.77397883  0.97644331  0.42879829    -0.23400
C2519       C  0.68324984  0.97501550  0.54264284    -0.18700
C2520       C  0.68558965  0.97493957  0.45647233    -0.18700
C2521       C  0.81873018  0.95351660  0.45869073    -0.18700
C2522       C  0.81600441  0.95218882  0.54388434    -0.18700
H2523       H  0.61254431  0.96267839  0.52183692     0.14200
H2524       H  0.61378058  0.96278763  0.47517193     0.14200
H2525       H  0.88016489  0.91279041  0.52452302     0.14200
H2526       H  0.88171806  0.91355456  0.47794001     0.14200
H2527       H  0.71520348  0.99330145  0.58745589     0.12500
H2528       H  0.78731156  0.98016011  0.58821807     0.12500
H2529       H  0.72038265  0.99055746  0.41287660     0.12500
H2530       H  0.79260945  0.97954867  0.41422481     0.12500
H2531       H  0.72105590  0.98356758  0.50027833     0.25700
H2532       H  0.78430731  0.97378903  0.50131249     0.25700
C2533       C  0.49467944  0.68650069  0.25549527     0.86000
C2534       C  0.52619828  0.69460652  0.23843570    -0.54200
C2535       C  0.52377181  0.72898284  0.22955979     0.09000
C2536       C  0.98855865  0.75151102  0.23898891     0.19900
C2537       C  0.99244917  0.71673535  0.27490559    -0.54900
C2538       C  0.99019892  0.75138903  0.26605487     0.09100
C2539       C  0.95691039  0.69483654  0.24122872    -0.54400
C2540       C  0.95484728  0.72941704  0.23285807     0.09600
H2541       H  0.55018960  0.67653553  0.23447370     0.14200
H2542       H  0.98717963  0.77932618  0.23153710    -0.00100
H2543       H  0.99468117  0.71193271  0.29359387     0.14500
H2544       H  0.93518884  0.67607613  0.23809896     0.14300
C2545       C  0.96346001  0.81508774  0.27414288    -0.26800
C2546       C  0.98837448  0.78616304  0.28067259    -0.14800
C2547       C  0.51555679  0.79303826  0.29888833     0.35800
C2548       C  0.51506837  0.82745229  0.31074155    -0.26200
C2549       C  0.98774151  0.85563957  0.30438857    -0.15400
C2550       C  0.96274247  0.84945220  0.28579451     0.36900
N2551       N  0.93748768  0.87801776  0.27765760    -0.89700
H2552       H  0.94461443  0.81116219  0.25961041     0.18000
H2553       H  0.53462652  0.83178989  0.32482951     0.18000
N2554       N  0.54194739  0.76455263  0.30565628    -0.88700
H2555       H  0.95262350  0.89998865  0.27263995     0.35400
H2556       H  0.91993984  0.88686973  0.29151134     0.40500
H2557       H  0.56834690  0.77435980  0.30432150     0.40100
H2558       H  0.53730697  0.75910887  0.32333046     0.35000
C2559       C  0.52299157  0.62019372  0.25998693    -0.26800
C2560       C  0.49538927  0.64788048  0.26629414    -0.14800
C2561       C  0.96320960  0.63719453  0.28281216     0.35800
C2562       C  0.96523969  0.60254450  0.29289334    -0.26200
C2563       C  0.49848722  0.57721937  0.28713931    -0.15400
C2564       C  0.52482330  0.58532189  0.27013578     0.36900
N2565       N  0.55447220  0.55886032  0.26399307    -0.89700
H2566       H  0.54369417  0.62481512  0.24710101     0.18000
H2567       H  0.94518862  0.59691596  0.30625211     0.18000
N2568       N  0.93278112  0.66185406  0.29003888    -0.88700
H2569       H  0.57295298  0.56983585  0.25238865     0.35400
H2570       H  0.54293399  0.53712865  0.25483257     0.40500
H2571       H  0.91656168  0.66900051  0.27554786     0.40100
H2572       H  0.94211357  0.68526079  0.29839280     0.35000
C2573       C  0.95628010  0.59105669  0.40348549    -0.26800
C2574       C  0.48516204  0.56391734  0.40936111    -0.14800
C2575       C  0.50491513  0.56628965  0.43079810     0.35800
C2576       C  0.49922173  0.59730424  0.44552167    -0.26200
C2577       C  0.97022499  0.62325749  0.43989067    -0.15400
C2578       C  0.94963433  0.62114454  0.41890894     0.36900
N2579       N  0.92144062  0.64858132  0.41311129    -0.89700
H2580       H  0.94147733  0.59046857  0.38692205     0.18000
H2581       H  0.51558854  0.59943308  0.46142026     0.18000
N2582       N  0.53157496  0.53829787  0.43795276    -0.88700
H2583       H  0.93318022  0.67374080  0.41140382     0.35400
H2584       H  0.90239541  0.65103772  0.42694312     0.40500
H2585       H  0.55236236  0.53503612  0.42524869     0.40100
H2586       H  0.51844686  0.51375248  0.43939467     0.35000
C2587       C  0.53179168  0.83534949  0.43942654    -0.26800
C2588       C  0.99828867  0.81067717  0.43637321    -0.14800
C2589       C  0.96849942  0.82113893  0.42166597     0.35800
C2590       C  0.97256454  0.84842138  0.40514725    -0.26200
C2591       C  0.00553802  0.86642060  0.40382050    -0.15400
C2592       C  0.53699058  0.86319423  0.42344871     0.36900
N2593       N  0.56873195  0.88459440  0.42564535    -0.89700
H2594       H  0.55186367  0.83044433  0.45329364     0.18000
H2595       H  0.94901296  0.85748284  0.39461312     0.18000
N2596       N  0.93349934  0.80559713  0.42448175    -0.88700
H2597       H  0.59234461  0.86678133  0.42432770     0.35400
H2598       H  0.56841086  0.89708147  0.44242651     0.40500
H2599       H  0.92609061  0.79384443  0.40831304     0.40100
H2600       H  0.91391426  0.82691506  0.42874809     0.35000
C2601       C  0.62592323  0.94966113  0.40381603    -0.26800
C2602       C  0.61256894  0.98427259  0.39604218    -0.14800
C2603       C  0.62411269  0.50895636  0.40718496     0.35800
C2604       C  0.64624405  0.01226515  0.42863318    -0.26200
C2605       C  0.65828827  0.97762118  0.43670845    -0.15400
C2606       C  0.64889691  0.94612745  0.42359748     0.36900
N2607       N  0.66267404  0.91017693  0.42989877    -0.89700
H2608       H  0.61813175  0.92491823  0.39462979     0.18000
H2609       H  0.65693604  0.52852987  0.43618742     0.18000
N2610       N  0.61652917  0.54491386  0.39805769    -0.88700
H2611       H  0.65441836  0.90571186  0.44714104     0.35400
H2612       H  0.69153236  0.90922893  0.42940024     0.40500
H2613       H  0.62926577  0.54530554  0.38157918     0.40100
H2614       H  0.62862673  0.56478469  0.40862094     0.35000
C2615       C  0.84888338  0.92186605  0.42382776    -0.26800
C2616       C  0.84846257  0.95061022  0.44066172    -0.14800
C2617       C  0.87358380  0.97837584  0.43860014     0.35800
C2618       C  0.89842206  0.97698550  0.41971288    -0.26200
C2619       C  0.89837720  0.94865616  0.40239209    -0.15400
C2620       C  0.87343535  0.92067876  0.40472754     0.36900
N2621       N  0.87304544  0.89077878  0.38792037    -0.89700
H2622       H  0.82941988  0.90064700  0.42526402     0.18000
H2623       H  0.91753821  0.99854912  0.41844288     0.18000
N2624       N  0.87368994  0.00876655  0.45508427    -0.88700
H2625       H  0.84655769  0.89059781  0.38065216     0.35400
H2626       H  0.87803868  0.86636533  0.39686408     0.40500
H2627       H  0.87892687  0.99863590  0.47184583     0.40100
H2628       H  0.84744989  0.02228563  0.45516691     0.35000
C2629       C  0.65364814  0.95093226  0.57819487    -0.26800
C2630       C  0.65488803  0.97875809  0.56166696    -0.14800
C2631       C  0.63372871  0.01194627  0.56554839     0.35800
C2632       C  0.61120641  0.01640061  0.58565346    -0.26200
C2633       C  0.60707589  0.48328709  0.60109582    -0.15400
C2634       C  0.62682049  0.44916996  0.59693152     0.36900
N2635       N  0.62399565  0.41990963  0.61309921    -0.89700
H2636       H  0.66522148  0.41824032  0.57387871     0.18000
H2637       H  0.59402998  0.04150906  0.58813737     0.18000
N2638       N  0.63539348  0.04101564  0.54912698    -0.88700
H2639       H  0.64291757  0.93840185  0.63130861     0.35400
H2640       H  0.64000112  0.39661846  0.60737017     0.40500
H2641       H  0.66222630  0.05002364  0.54957117     0.40100
H2642       H  0.60964035  0.54264933  0.54265319     0.35000
C2643       C  0.87645288  0.92278012  0.59557024    -0.26800
C2644       C  0.89862264  0.95296450  0.59831412    -0.14800
C2645       C  0.89392952  0.98215008  0.58256719     0.35800
C2646       C  0.86727503  0.98086022  0.56477557    -0.26200
C2647       C  0.84520726  0.95090170  0.56219063    -0.15400
C2648       C  0.84998429  0.92145266  0.57763467     0.36900
N2649       N  0.82865797  0.88980642  0.57523096    -0.89700
H2650       H  0.88018396  0.89973195  0.60710050     0.18000
H2651       H  0.86408154  0.49790170  0.54935997     0.18000
N2652       N  0.91585964  0.01340607  0.58463464    -0.88700
H2653       H  0.80070938  0.89821784  0.57693958     0.35400
H2654       H  0.83294353  0.87839023  0.55831434     0.40500
H2655       H  0.90144046  0.53394933  0.58083954     0.40100
H2656       H  0.93196312  0.50954559  0.56316852     0.35000
C2657       C  0.96075107  0.62860382  0.57738877    -0.26800
C2658       C  0.98148309  0.62617864  0.55656425    -0.14800
C2659       C  0.50698601  0.59884849  0.55401676     0.35800
C2660       C  0.50970004  0.57056164  0.57003636    -0.26200
C2661       C  0.48720153  0.57144102  0.59012502    -0.15400
C2662       C  0.96515403  0.60145290  0.59428199     0.36900
N2663       N  0.94433804  0.60531993  0.61570006    -0.89700
H2664       H  0.94166783  0.65213904  0.58076012     0.18000
H2665       H  0.53085865  0.54863036  0.56730066     0.18000
N2666       N  0.53281731  0.59778892  0.53491392    -0.88700
H2667       H  0.91626554  0.60711058  0.61138454     0.35400
H2668       H  0.95062629  0.62999566  0.62411102     0.40500
H2669       H  0.54713688  0.62178860  0.53576394     0.40100
H2670       H  0.51838766  0.59687855  0.51903161     0.35000
C2671       C  0.98432320  0.84833460  0.59485104    -0.26800
C2672       C  0.01155664  0.87349861  0.59181579    -0.14800
C2673       C  0.53415725  0.87368400  0.57327500     0.35800
C2674       C  0.53217718  0.84276480  0.55821577    -0.26200
C2675       C  0.00461174  0.81469775  0.55908266    -0.15400
C2676       C  0.98023947  0.81943155  0.57840013     0.36900
N2677       N  0.95020861  0.79602728  0.58067755    -0.89700
H2678       H  0.96442413  0.85266143  0.60901929     0.18000
H2679       H  0.55108329  0.83921056  0.54346230     0.18000
N2680       N  0.56101702  0.89990472  0.56886168    -0.88700
H2681       H  0.92554938  0.81239396  0.58065093     0.35400
H2682       H  0.95260815  0.78357263  0.59698341     0.40500
H2683       H  0.55657312  0.90969244  0.55192253     0.40100
H2684       H  0.58724648  0.88640024  0.56924828     0.35000
C2685       C  0.56572827  0.72334278  0.19479199    -0.26800
C2686       C  0.55519411  0.74217697  0.21582079    -0.14800
C2687       C  0.57895677  0.76802468  0.22551028     0.35800
C2688       C  0.61259853  0.77379744  0.21444687    -0.26200
C2689       C  0.62412577  0.75329374  0.19423654    -0.15400
C2690       C  0.59985445  0.72857724  0.18400892     0.36900
N2691       N  0.60993743  0.70832676  0.16282580    -0.89700
H2692       H  0.54807483  0.70315518  0.18726957     0.18000
H2693       H  0.63097036  0.79267453  0.22267911     0.18000
N2694       N  0.57117747  0.78668206  0.24754178    -0.88700
H2695       H  0.58961176  0.71428591  0.15021956     0.35400
H2696       H  0.60986432  0.68037232  0.16626671     0.40500
H2697       H  0.56858545  0.76697532  0.26028904     0.40100
H2698       H  0.54621895  0.80223332  0.24606136     0.35000
C2699       C  0.85362239  0.75775021  0.22362590    -0.26800
C2700       C  0.85273550  0.76421977  0.19940520    -0.14800
C2701       C  0.88661334  0.76317737  0.18684853     0.35800
C2702       C  0.92000490  0.75365446  0.19833647    -0.26200
C2703       C  0.92034768  0.74496040  0.22210391    -0.15400
C2704       C  0.88704398  0.74798860  0.23507527     0.36900
N2705       N  0.88726624  0.74025807  0.25973583    -0.89700
H2706       H  0.82805226  0.75921746  0.23354140     0.18000
H2707       H  0.94560659  0.75176040  0.18842802     0.18000
N2708       N  0.88739939  0.77176983  0.16242422    -0.88700
H2709       H  0.86054031  0.74339525  0.26668548     0.35400
H2710       H  0.90267562  0.75981849  0.26837817     0.40500
H2711       H  0.89948645  0.74908103  0.15308996     0.40100
H2712       H  0.90423293  0.79374776  0.16047362     0.35000
C2713       C  0.78195502  0.63715974  0.06651839    -0.26800
C2714       C  0.74893550  0.62721334  0.05592941    -0.14800
C2715       C  0.71539783  0.64701822  0.06174827     0.35800
C2716       C  0.71573157  0.67693105  0.07755411    -0.26200
C2717       C  0.74864332  0.68625434  0.08857464    -0.15400
C2718       C  0.78190081  0.66609368  0.08319543     0.36900
N2719       N  0.81554868  0.67493917  0.09463367    -0.89700
H2720       H  0.80764822  0.62171383  0.06227117     0.18000
H2721       H  0.68988149  0.69190101  0.08211674     0.18000
N2722       N  0.68063477  0.63648780  0.05257101    -0.88700
H2723       H  0.83467962  0.68049190  0.08165500     0.35400
H2724       H  0.82583375  0.65175537  0.10343949     0.40500
H2725       H  0.68115370  0.63764709  0.03425209     0.40100
H2726       H  0.67714769  0.60937626  0.05710723     0.35000
C2727       C  0.71739113  0.93699418  0.08179052    -0.26800
C2728       C  0.74742245  0.93830346  0.06633637    -0.14800
C2729       C  0.77774686  0.91261851  0.06809824     0.35800
C2730       C  0.77558130  0.88353526  0.08316162    -0.26200
C2731       C  0.74454500  0.88063747  0.09745120    -0.15400
C2732       C  0.71605453  0.90872528  0.09790650     0.36900
N2733       N  0.68522443  0.90887117  0.11378981    -0.89700
H2734       H  0.69462729  0.95751862  0.08093560     0.18000
H2735       H  0.79787338  0.86247964  0.08324688     0.18000
N2736       N  0.81082704  0.91539871  0.05465093    -0.88700
H2737       H  0.68588011  0.93256302  0.12449628     0.35400
H2738       H  0.68779563  0.88684919  0.12510089     0.40500
H2739       H  0.82132420  0.94088554  0.05862216     0.40100
H2740       H  0.80426110  0.91425977  0.03675987     0.35000
C2741       C  0.74604850  0.60297594  0.91633712    -0.26800
C2742       C  0.77147228  0.60133114  0.93500461    -0.14800
C2743       C  0.79914104  0.62702376  0.93630003     0.35800
C2744       C  0.79691966  0.65692959  0.92141131    -0.26200
C2745       C  0.76950493  0.66046725  0.90401384    -0.15400
C2746       C  0.74539323  0.63191162  0.90051569     0.36900
N2747       N  0.71872414  0.63331150  0.88191875    -0.89700
H2748       H  0.72530152  0.58287923  0.91482804     0.18000
H2749       H  0.81615002  0.67821330  0.92403090     0.18000
N2750       N  0.82868378  0.62458400  0.95320146    -0.88700
H2751       H  0.69240086  0.63303900  0.88937850     0.35400
H2752       H  0.72310010  0.60956411  0.87135119     0.40500
H2753       H  0.82844270  0.60039514  0.96252400     0.40100
H2754       H  0.85352850  0.62276706  0.94379630     0.35000
C2755       C  0.77309302  0.88754973  0.94799388    -0.26800
C2756       C  0.74633281  0.91651362  0.94592621    -0.14800
C2757       C  0.71956371  0.91478011  0.92792517     0.35800
C2758       C  0.72183819  0.88559781  0.91133586    -0.26200
C2759       C  0.74967926  0.85724596  0.91276912    -0.15400
C2760       C  0.77483419  0.85787890  0.93177199     0.36900
N2761       N  0.80323543  0.82928329  0.93419129    -0.89700
H2762       H  0.79339516  0.88845256  0.96197559     0.18000
H2763       H  0.70180078  0.88515194  0.89719246     0.18000
N2764       N  0.68969130  0.94206132  0.92628046    -0.88700
H2765       H  0.80009643  0.81765460  0.95060853     0.35400
H2766       H  0.82873951  0.84117816  0.93402655     0.40500
H2767       H  0.67511382  0.94307331  0.94216735     0.40100
H2768       H  0.70055697  0.96756002  0.92399450     0.35000
C2769       C  0.98050496  0.61827893  0.70661430    -0.26800
C2770       C  0.50593750  0.59197111  0.71211852    -0.14800
C2771       C  0.53592463  0.60174290  0.72650820     0.35800
C2772       C  0.53697425  0.63764893  0.73619890    -0.26200
C2773       C  0.50891497  0.66532533  0.73183609    -0.15400
C2774       C  0.98152773  0.65377321  0.71678324     0.36900
N2775       N  0.95386604  0.68125071  0.71025704    -0.89700
H2776       H  0.95946875  0.61322400  0.69355980     0.18000
H2777       H  0.56052907  0.64316324  0.74697006     0.18000
N2778       N  0.56675714  0.57643485  0.73076240    -0.88700
H2779       H  0.95515603  0.68410490  0.69203383     0.35400
H2780       H  0.92800088  0.67191021  0.71433599     0.40500
H2781       H  0.57874498  0.56815135  0.71463529     0.40100
H2782       H  0.55721846  0.55354293  0.73893670     0.35000
C2783       C  0.52528533  0.80942434  0.70003165    -0.26800
C2784       C  0.00294876  0.80095591  0.72002842    -0.14800
C2785       C  0.97619707  0.82967254  0.72552572     0.35800
C2786       C  0.97376798  0.86138203  0.71201089    -0.26200
C2787       C  0.99797660  0.86553881  0.69320798    -0.15400
C2788       C  0.52329650  0.84178046  0.68715005     0.36900
N2789       N  0.55100002  0.84621591  0.66967498    -0.89700
H2790       H  0.54777793  0.78909392  0.69662137     0.18000
H2791       H  0.95352679  0.88340522  0.71672426     0.18000
N2792       N  0.95101095  0.82669545  0.74464001    -0.88700
H2793       H  0.56599166  0.86879485  0.67445807     0.35400
H2794       H  0.53786701  0.85125811  0.65360563     0.40500
H2795       H  0.92411007  0.82908250  0.73798757     0.40100
H2796       H  0.95427621  0.84870646  0.75645943     0.35000
C2797       C  0.60923785  0.76208381  0.76468002    -0.26800
C2798       C  0.57623871  0.76413471  0.77763359    -0.14800
C2799       C  0.57790527  0.77252271  0.80201169     0.35800
C2800       C  0.61241262  0.77582781  0.81307992    -0.26200
C2801       C  0.64584455  0.77062081  0.80037155    -0.15400
C2802       C  0.64371046  0.76503535  0.77566022     0.36900
N2803       N  0.67649421  0.76063904  0.76158178    -0.89700
H2804       H  0.60842715  0.75587259  0.74593293     0.18000
H2805       H  0.61302034  0.78057823  0.83196892     0.18000
N2806       N  0.54519627  0.77626428  0.81611856    -0.88700
H2807       H  0.67492054  0.78054172  0.74870426     0.35400
H2808       H  0.67694866  0.73484766  0.75309739     0.40500
H2809       H  0.53109522  0.75221827  0.81422843     0.40100
H2810       H  0.52855849  0.79802545  0.80964966     0.35000
C2811       C  0.93874240  0.78308544  0.80022367    -0.26800
C2812       C  0.93965548  0.76312998  0.77870555    -0.14800
C2813       C  0.90599429  0.75772633  0.76696058     0.35800
C2814       C  0.87240687  0.76775365  0.77815129    -0.26200
C2815       C  0.87133565  0.78439165  0.80068342    -0.15400
C2816       C  0.90486312  0.79400596  0.81123160     0.36900
N2817       N  0.90537917  0.81314899  0.83350748    -0.89700
H2818       H  0.96429738  0.78865961  0.80906388     0.18000
H2819       H  0.84686398  0.76132199  0.76945248     0.18000
N2820       N  0.90579647  0.74192983  0.74360438    -0.88700
H2821       H  0.89271655  0.79743456  0.84586599     0.35400
H2822       H  0.88981553  0.83800149  0.83204697     0.40500
H2823       H  0.89196970  0.76071213  0.73264287     0.40100
H2824       H  0.89078204  0.71838397  0.74384653     0.35000
C2825       C  0.86444343  0.00418098  0.73786280    -0.26800
C2826       C  0.83118996  0.00511707  0.72499830    -0.14800
C2827       C  0.83324217  0.49454309  0.69863714     0.35800
C2828       C  0.86807706  0.49094141  0.68776924    -0.26200
C2829       C  0.90119956  0.99281082  0.70201829    -0.15400
C2830       C  0.89907193  0.99826107  0.72682116     0.36900
N2831       N  0.93135747  0.99892524  0.74132873    -0.89700
H2832       H  0.86351633  0.00835488  0.75681227     0.18000
H2833       H  0.86909801  0.48986618  0.66871583     0.18000
N2834       N  0.80098392  0.49738659  0.68409582    -0.88700
H2835       H  0.94828078  0.01877161  0.73515049     0.35400
H2836       H  0.94552433  0.97318281  0.74030042     0.40500
H2837       H  0.78610992  0.52207183  0.68835395     0.40100
H2838       H  0.78455100  0.47572729  0.68777164     0.35000
C2839       C  0.69144329  0.01901302  0.69558308    -0.26800
C2840       C  0.69573043  0.50602690  0.71544260    -0.14800
C2841       C  0.66738744  0.48655397  0.72522817     0.35800
C2842       C  0.63384016  0.48386512  0.71324850    -0.26200
C2843       C  0.62691341  0.50205300  0.69213211    -0.15400
C2844       C  0.65497753  0.52203057  0.68241668     0.36900
N2845       N  0.65484812  0.02801521  0.65941007    -0.89700
H2846       H  0.71458334  0.03074725  0.68714915     0.18000
H2847       H  0.61221778  0.46921949  0.72130356     0.18000
N2848       N  0.67139721  0.47190221  0.74824411    -0.88700
H2849       H  0.66862110  0.53077695  0.64872000     0.35400
H2850       H  0.65246864  0.56865704  0.66414575     0.40500
H2851       H  0.66011320  0.95440843  0.75433834     0.40100
H2852       H  0.64655836  0.99753473  0.76341942     0.35000
C2853       C  0.78426608  0.60072064  0.78463825    -0.26800
C2854       C  0.75285865  0.58105617  0.77942210    -0.14800
C2855       C  0.71904067  0.59378850  0.79074441     0.35800
C2856       C  0.71694218  0.62719709  0.80379713    -0.26200
C2857       C  0.74788345  0.64807524  0.80692523    -0.15400
C2858       C  0.78215497  0.63370697  0.79773126     0.36900
N2859       N  0.81542217  0.65241100  0.80151835    -0.89700
H2860       H  0.81153088  0.59083420  0.77919890     0.18000
H2861       H  0.69069265  0.63696047  0.81144821     0.18000
N2862       N  0.68647653  0.57333091  0.79020452    -0.88700
H2863       H  0.82644178  0.65808704  0.78511412     0.35400
H2864       H  0.83445064  0.63480695  0.81013077     0.40500
H2865       H  0.69252449  0.54731098  0.79681724     0.40100
H2866       H  0.67619566  0.57102593  0.77317846     0.35000
C2867       C  0.73712876  0.91523007  0.76092931    -0.26800
C2868       C  0.75892868  0.94133639  0.77199070    -0.14800
C2869       C  0.78079012  0.93096936  0.79151884     0.35800
C2870       C  0.77750233  0.89636068  0.80101670    -0.26200
C2871       C  0.75400483  0.87111611  0.79096064    -0.15400
C2872       C  0.73452548  0.88016265  0.77024289     0.36900
N2873       N  0.71112244  0.85487648  0.75889534    -0.89700
H2874       H  0.72116043  0.92247993  0.74546359     0.18000
H2875       H  0.79338973  0.88899293  0.81652482     0.18000
N2876       N  0.80646418  0.95556723  0.80153898    -0.88700
H2877       H  0.69125780  0.84781972  0.77101610     0.35400
H2878       H  0.72727094  0.83115460  0.75417289     0.40500
H2879       H  0.82634990  0.95964051  0.78871398     0.40100
H2880       H  0.82053178  0.94367798  0.81574270     0.35000
C2881       C  0.60385428  0.80129718  0.07451466    -0.26800
C2882       C  0.58685824  0.76908449  0.06823535    -0.14800
C2883       C  0.59285311  0.73790916  0.08193271     0.35800
C2884       C  0.61702518  0.73885735  0.10117219    -0.26200
C2885       C  0.63520418  0.77077844  0.10725735    -0.25000
C2886       C  0.62780553  0.80254643  0.09387150     0.36900
N2887       N  0.64521326  0.83589952  0.09931662    -0.89700
H2888       H  0.59856545  0.82561962  0.06425737     0.18000
H2889       H  0.62236542  0.71405552  0.11092131     0.18000
N2890       N  0.57440077  0.70524798  0.07624905    -0.88700
H2891       H  0.62453683  0.85660102  0.10256363     0.35400
H2892       H  0.66010354  0.84290848  0.08452602     0.40500
H2893       H  0.59449008  0.68390570  0.07322837     0.40100
H2894       H  0.55885464  0.69885499  0.09089470     0.35000
C2895       C  0.89334414  0.82347083  0.07101960    -0.26800
C2896       C  0.89363552  0.79320965  0.05521638    -0.14800
C2897       C  0.86811142  0.76607505  0.05849834     0.35800
C2898       C  0.84427970  0.76887871  0.07793206    -0.26200
C2899       C  0.84562514  0.79785994  0.09472283    -0.15400
C2900       C  0.86989891  0.82590061  0.09074768     0.36900
N2901       N  0.87077868  0.85705493  0.10654286    -0.89700
H2902       H  0.91274762  0.84449923  0.06861103     0.18000
H2903       H  0.82495861  0.74776063  0.08009040     0.18000
N2904       N  0.86671604  0.73469394  0.04290210    -0.88700
H2905       H  0.86464166  0.88064191  0.09694196     0.35400
H2906       H  0.89768195  0.85827145  0.11302813     0.40500
H2907       H  0.86003983  0.74360656  0.02605282     0.40100
H2908       H  0.89285139  0.72097645  0.04233587     0.35000
C2909       C  0.62613367  0.78180091  0.94049491    -0.26800
C2910       C  0.60320019  0.75326962  0.94488423    -0.14800
C2911       C  0.60620711  0.72119695  0.93032019     0.35800
C2912       C  0.63123297  0.71870230  0.91144728    -0.26200
C2913       C  0.65377016  0.74758787  0.90662932    -0.15400
C2914       C  0.65120767  0.77949737  0.92152606     0.36900
N2915       N  0.67335748  0.80989807  0.91709989    -0.89700
H2916       H  0.62337966  0.80661176  0.95140893     0.18000
H2917       H  0.63329026  0.69378554  0.90061179     0.18000
N2918       N  0.58413752  0.69075324  0.93435838    -0.88700
H2919       H  0.66863118  0.83079269  0.92987877     0.35400
H2920       H  0.66476646  0.82081262  0.90105521     0.40500
H2921       H  0.58894854  0.68223405  0.95155109     0.40100
H2922       H  0.55628287  0.69942719  0.93286526     0.35000
C2923       C  0.88152528  0.80825861  0.89948135    -0.26800
C2924       C  0.86675155  0.77507301  0.89200031    -0.14800
C2925       C  0.87793755  0.74251440  0.90368511     0.35800
C2926       C  0.90014305  0.74466135  0.92391137    -0.26200
C2927       C  0.91267868  0.77823815  0.93209368    -0.15400
C2928       C  0.90451362  0.81002569  0.91916778     0.36900
N2929       N  0.91903519  0.84443552  0.92578684    -0.89700
H2930       H  0.87412057  0.83343734  0.89052800     0.18000
H2931       H  0.90816901  0.71997553  0.93323741     0.18000
N2932       N  0.86648192  0.70752095  0.89525948    -0.88700
H2933       H  0.94787114  0.84117307  0.92558445     0.35400
H2934       H  0.91051948  0.85145348  0.94296610     0.40500
H2935       H  0.87712232  0.68655773  0.90591430     0.40100
H2936       H  0.87825442  0.70242621  0.87861528     0.35000
C2937       C  0.86589887  0.98855769  0.31164677    -0.26800
C2938       C  0.89907689  0.98809021  0.29870699    -0.14800
C2939       C  0.89717351  0.99655507  0.27465623     0.35800
C2940       C  0.86262312  0.00521136  0.26416512    -0.26200
C2941       C  0.82963255  0.00585940  0.27722836    -0.15400
C2942       C  0.83159377  0.99756406  0.30128469     0.36900
N2943       N  0.79952569  0.00033826  0.31599813    -0.89700
H2944       H  0.86652142  0.98231768  0.33017124     0.18000
H2945       H  0.86161083  0.01227812  0.24577629     0.18000
N2946       N  0.93021548  0.99772110  0.26100120    -0.88700
H2947       H  0.78045328  0.98234738  0.30941388     0.35400
H2948       H  0.78803958  0.02715764  0.31518695     0.40500
H2949       H  0.93130570  0.02413726  0.25451831     0.40100
H2950       H  0.92839931  0.97938406  0.24665383     0.35000
C2951       C  0.64809863  0.02203959  0.31639162    -0.26800
C2952       C  0.62707342  0.49361782  0.30806850    -0.14800
C2953       C  0.64441570  0.46879663  0.29139388     0.35800
C2954       C  0.67854004  0.47665636  0.28140867    -0.26200
C2955       C  0.69605320  0.00923701  0.28663315    -0.15400
C2956       C  0.68248750  0.02922934  0.30687549     0.36900
N2957       N  0.70315434  0.05665410  0.31845233    -0.89700
H2958       H  0.63793095  0.03827171  0.33153916     0.18000
H2959       H  0.69058726  0.45826928  0.26786615     0.18000
N2960       N  0.62686542  0.43649723  0.28367839    -0.88700
H2961       H  0.70782189  0.07753779  0.30687830     0.35400
H2962       H  0.72849062  0.04442993  0.32359342     0.40500
H2963       H  0.64477550  0.41377374  0.28709368     0.40100
H2964       H  0.62310980  0.43758182  0.26546913     0.35000
C2965       C  0.72443115  0.62797915  0.23753842    -0.26800
C2966       C  0.75204516  0.59996365  0.23231088    -0.14800
C2967       C  0.78016938  0.60800466  0.21623544     0.35800
C2968       C  0.77990238  0.64251566  0.20582562    -0.26200
C2969       C  0.75202581  0.66989634  0.21087950    -0.15400
C2970       C  0.72403983  0.66230488  0.22689134     0.36900
N2971       N  0.69389231  0.68868931  0.23151414    -0.89700
H2972       H  0.70221108  0.62395412  0.24952389     0.18000
H2973       H  0.80135267  0.64765327  0.19328270     0.18000
N2974       N  0.80916265  0.58098045  0.21025051    -0.88700
H2975       H  0.69287549  0.69440140  0.24963076     0.35400
H2976       H  0.66937319  0.67683876  0.22662799     0.40500
H2977       H  0.83439432  0.59183349  0.21462099     0.40100
H2978       H  0.80868833  0.57614502  0.19204521     0.35000
C2979       C  0.72504503  0.91697152  0.19541914    -0.26800
C2980       C  0.75743261  0.89366552  0.19511386    -0.14800
C2981       C  0.78886032  0.90543134  0.20713903     0.35800
C2982       C  0.78693024  0.93895707  0.22006806    -0.26200
C2983       C  0.75453347  0.96198738  0.22059203    -0.15400
C2984       C  0.72354945  0.95117479  0.20751823     0.36900
N2985       N  0.69006401  0.97397612  0.20650176    -0.89700
H2986       H  0.70071369  0.90859622  0.18610297     0.18000
H2987       H  0.81100777  0.94709129  0.22976075     0.18000
N2988       N  0.82250979  0.88283031  0.20695849    -0.88700
H2989       H  0.69580574  0.99856852  0.19873325     0.35400
H2990       H  0.68065316  0.97991112  0.22360535     0.40500
H2991       H  0.82935680  0.87680686  0.22435027     0.40100
H2992       H  0.84336519  0.89800017  0.20011855     0.35000
loop_ 
_geom_bond_atom_site_label_1 
_geom_bond_atom_site_label_2 
_geom_bond_distance 
_geom_bond_site_symmetry_2 
_ccdc_geom_bond_type 
C1            C2   1.543       .  S
C1            C7   1.536       .  S
C1            C5   1.547       .  S
C1          C722   1.544       .  S
C2          H757   1.086       .  S
C2          C751   1.366   1_545  D
C3            C4   1.544       .  S
C3          C750   1.367       .  D
C3          C739   1.484       .  S
C4            C8   1.550       .  S
C4            C6   1.553       .  S
C4           H10   1.111       .  S
C5           H11   1.081       .  S
C5          C754   1.370       .  D
C6          C753   1.369       .  D
C6          C711   1.505       .  S
C7           H12   1.087       .  S
C7          C756   1.362       .  D
C8          C755   1.359       .  D
C8          C697   1.491       .  S
H9          C750   1.085       .  S
N13          C18   1.355       .  A
N13          C17   1.355   1_556  A
N13          H45   1.036   1_556  S
N14          C22   1.350   1_655  A
N14        C1517   1.350       .  A
N15          C20   1.353   1_554  A
N15          C19   1.353       .  A
N15          H46   1.037       .  S
N16          C24   1.353       .  A
N16        C1519   1.352   1_455  A
C17          C25   1.388       .  A
C17          C33   1.424       .  A
C18          C34   1.422       .  A
C18          C26   1.387       .  A
C19          C27   1.387       .  A
C19          C36   1.417       .  A
C20          C35   1.418       .  A
C20          C28   1.388       .  A
C21        N1510   1.353       .  A
C21          C33   1.419       .  A
C21          C29   1.388       .  A
C22          C36   1.410       .  A
C22          C30   1.387       .  A
C23        N1512   1.352       .  A
C23          C31   1.386       .  A
C23          C34   1.414       .  A
C24          C32   1.387       .  A
C24          C35   1.417       .  A
C25          C26   1.378   1_554  A
C25          H37   1.082       .  S
C26          H38   1.082       .  S
C27          C28   1.378   1_554  A
C27          H39   1.082       .  S
C28          H40   1.082       .  S
C29        C1526   1.368       .  A
C29          H41   1.082       .  S
C30        C1525   1.368   1_455  A
C30          H42   1.082       .  S
C31        C1528   1.368       .  A
C31          H43   1.082       .  S
C32        C1527   1.366   1_455  A
C32          H44   1.082       .  S
C33         C652   1.493       .  S
C34         C683   1.492       .  S
C35         C666   1.488       .  S
C36         C638   1.482       .  S
C47          C48   1.544       .  S
C47          C53   1.535       .  S
C47          C51   1.535       .  S
C47         C610   1.544       .  S
C48          H55   1.083       .  S
C48         C797   1.362       .  D
C49          C50   1.541       .  S
C49         C796   1.359       .  D
C49         C582   1.485       .  S
C50          C54   1.542       .  S
C50          C52   1.549       .  S
C50          H56   1.108       .  S
C51          H57   1.082       .  S
C51         C800   1.364       .  D
C52         C799   1.364       .  D
C52        C1344   1.487       .  S
C53         H806   1.085       .  S
C53         C802   1.370   1_545  D
C54         C801   1.376       .  D
C54         C624   1.506       .  S
H58         C801   1.084       .  S
C59          C63   1.541       .  S
C59        C1556   1.551       .  S
C59        C1561   1.533   1_455  S
C59         C529   1.556       .  S
C60        C1555   1.552       .  S
C60          H67   1.085       .  S
C60          C61   1.374       .  D
C61          C62   1.542       .  S
C61         C540   1.497       .  S
C62          C66   1.543       .  S
C62        C1560   1.548       .  S
C62          H68   1.110       .  S
C63          H69   1.081       .  S
C63          C64   1.366       .  D
C64        C1558   1.550       .  S
C64         C554   1.501       .  S
C65        C1555   1.535       .  S
C65          H70   1.087       .  S
C65          C66   1.370       .  D
C66         C568   1.497       .  S
N71          C76   1.350   1_554  A
N71          C75   1.352       .  A
N71         H103   1.039       .  S
N72          C80   1.346       .  A
N72         C827   1.351       .  A
N73          C78   1.355       .  A
N73          C77   1.351   1_556  A
N73         H104   1.040   1_556  S
N74          C82   1.348       .  A
N74         C829   1.345   1_545  A
C75          C83   1.386       .  A
C75          C91   1.413       .  A
C76          C92   1.413       .  A
C76          C84   1.387       .  A
C77          C85   1.389       .  A
C77          C94   1.413       .  A
C78          C93   1.414       .  A
C78          C86   1.386       .  A
C79         N820   1.350       .  A
C79          C91   1.409       .  A
C79          C87   1.384       .  A
C80          C94   1.410       .  A
C80          C88   1.389       .  A
C81         N822   1.349       .  A
C81          C89   1.388       .  A
C81          C92   1.413       .  A
C82          C90   1.383       .  A
C82          C93   1.403       .  A
C83          C84   1.378   1_554  A
C83          H95   1.082       .  S
C84          H96   1.082       .  S
C85          C86   1.373   1_554  A
C85          H97   1.081       .  S
C86          H98   1.082       .  S
C87         C836   1.374       .  A
C87          H99   1.082       .  S
C88         C835   1.374       .  A
C88         H100   1.082       .  S
C89         C838   1.373       .  A
C89         H101   1.082       .  S
C90         C837   1.374   1_545  A
C90         H102   1.082       .  S
C91         C484   1.489       .  S
C92         C512   1.483       .  S
C93         C498   1.487       .  S
C94         C470   1.474       .  S
O105        C113   1.265       .  A
O105       Co125   2.011       .  S
O106        C114   1.281       .  A
O106       Co126   2.036       .  S
O107        C115   1.252       .  A
O107       Co127   1.946       .  S
O108        C116   1.268       .  A
O108       Co128   1.906       .  S
O109        C115   1.272       .  A
O109       Co126   2.043       .  S
O110        C116   1.291       .  A
O110       Co125   2.093       .  S
O111        C114   1.272       .  A
O111       Co128   1.983       .  S
O112        C113   1.258       .  A
O112       Co127   1.974       .  S
C113        C515   1.482       .  S
C114        C557   1.507       .  S
C115        C627   1.482       .  S
C116        C669   1.478       .  S
O117        C130   1.266       .  A
O117       Co125   1.883       .  S
O118        C131   1.258       .  A
O118       Co126   1.950       .  S
O119        C132   1.276       .  A
O119       Co127   2.025       .  S
O120        C133   1.263       .  A
O120       Co128   2.016       .  S
O121        C133   1.254       .  A
O121       Co126   1.966       .  S
O122        C132   1.267       .  A
O122       Co125   1.972       .  S
O123        C130   1.296       .  A
O123       Co128   2.111       .  S
O124        C131   1.277       .  A
O124       Co127   2.052       .  S
Co125       O129   2.000       .  S
Co126       O129   2.033       .  S
Co127       O129   2.037       .  S
Co128       O129   2.029       .  S
C130        C501   1.477       .  S
C131        C571   1.483       .  S
C132        C680   1.492       .  S
C133        C613   1.488       .  S
O134        C142   1.261       .  A
O134       Co154   1.993       .  S
O135        C143   1.266       .  A
O135       Co155   1.963       .  S
O136        C144   1.299       .  A
O136       Co156   2.122       .  S
O137        C145   1.277       .  A
O137       Co157   2.027       .  S
O138        C144   1.261       .  A
O138       Co155   1.876       .  S
O139        C145   1.273       .  A
O139       Co154   1.993       .  S
O140        C143   1.278       .  A
O140       Co157   2.024       .  S
O141        C142   1.262       .  A
O141       Co156   1.997       .  S
C142        C736   1.485       .  S
C143        C641   1.487       .  S
C144        C487   1.470       .  S
C145        C445   1.504       .  S
O146        C159   1.272       .  A
O146       Co154   2.026       .  S
O147        C160   1.293       .  A
O147       Co155   2.107       .  S
O148        C161   1.269       .  A
O148       Co156   1.965       .  S
O149        C162   1.258       .  A
O149       Co157   1.980       .  S
O150        C162   1.260       .  A
O150       Co155   1.993       .  S
O151        C161   1.287       .  A
O151       Co154   2.053       .  S
O152        C159   1.259       .  A
O152       Co157   1.964       .  S
O153        C160   1.266       .  A
O153       Co156   1.906       .  S
Co154       O158   2.034       .  S
Co155       O158   1.994       .  S
Co156       O158   2.017       .  S
Co157       O158   2.029       .  S
C159        C725   1.489       .  S
C160        C655   1.482       .  S
C161        C456   1.495       .  S
C162        C473   1.461       .  S
O163       C1667   1.277       .  A
O163      Co2427   2.054   1_545  S
O164        C172   1.290       .  A
O164       Co184   2.087       .  S
O165        C173   1.258       .  A
O165       Co185   1.974   1_655  S
O166        C174   1.268       .  A
O166       Co186   1.962       .  S
O167       C1669   1.263       .  A
O167       Co932   2.006   1_545  S
O168        C922   1.281       .  A
O168      Co2427   2.037       .  S
O169        C172   1.269       .  A
O169       Co186   1.912       .  S
O170        C171   1.257   1_655  A
O170       Co185   1.964   1_655  S
C171        C526   1.502       .  S
C171       O1659   1.275       .  A
C172        C400   1.486       .  S
C173        C417   1.480       .  S
C173       O1663   1.264   1_655  A
C174        C585   1.498       .  S
C174        O916   1.281       .  A
O175       C1684   1.259   1_455  A
O175       Co183   1.996       .  S
O176        C937   1.263       .  A
O176      Co1680   1.965       .  S
O177        C190   1.277       .  A
O177       Co185   2.036       .  S
O178        C191   1.300       .  A
O178       Co186   2.120       .  S
O179       C1687   1.264       .  A
O179      Co1680   1.879       .  S
O180        C938   1.265       .  A
O180       Co183   1.968       .  S
O181        C188   1.266       .  A
O181       Co186   2.023       .  S
O182        C189   1.275   1_545  A
O182       Co185   2.024       .  S
Co183      O2407   2.052       .  S
Co183      O2412   2.043   1_455  S
Co183      O1683   2.042       .  S
Co184       O915   2.008       .  S
Co184      O1672   1.956       .  S
Co184      O1675   1.879       .  S
Co184       O187   1.996       .  S
Co185      O2431   2.045   1_545  S
Co186       O187   2.033       .  S
O187      Co1679   2.037       .  S
O187      Co2429   2.042       .  S
C188        C543   1.487       .  S
C188       O1671   1.256       .  A
C189        C389   1.485       .  S
C189        O924   1.263       .  A
C190        C599   1.483       .  S
C190        O928   1.262   1_545  A
C191        C428   1.478       .  S
C191       O1675   1.260       .  A
O192        C948   1.271       .  A
O192       Co212   1.985       .  S
O193       C1697   1.262       .  A
O193      Co1709   1.867       .  S
O194        C950   1.276   1_545  A
O194       Co214   2.025       .  S
O195        C203   1.263       .  A
O195       Co215   2.009       .  S
O196        C202   1.267       .  A
O196      Co1709   1.971       .  S
O197       C1699   1.261   1_455  A
O197       Co212   1.992       .  S
O198        C201   1.301       .  A
O198       Co215   2.121       .  S
O199        C200   1.280   1_545  A
O199       Co214   2.032       .  S
C200        C708   1.504       .  S
C200        O940   1.272       .  A
C201        C347   1.479       .  S
C201       O1689   1.262       .  A
C202        C358   1.497       .  S
C202        O942   1.277       .  A
C203        C305   1.488       .  S
C203       O1693   1.261       .  A
O204        C217   1.285       .  A
O204      Co1708   2.055       .  S
O205       C1714   1.263       .  A
O205       Co961   2.003   1_545  S
O206        C219   1.255   1_655  A
O206       Co214   1.956   1_655  S
O207        C220   1.266       .  A
O207       Co215   1.903       .  S
O208        C220   1.288       .  A
O208       Co213   2.085       .  S
O209        C219   1.270       .  A
O209       Co960   2.030   1_545  S
O210        C217   1.267       .  A
O210       Co215   1.962       .  S
O211        C218   1.257       .  A
O211       Co214   1.973   1_655  S
Co212      O1700   2.043   1_455  S
Co212       O957   2.033       .  S
Co212       O216   2.050       .  S
Co213      O1689   1.873       .  S
Co213      O1692   1.963       .  S
Co213       O953   2.012       .  S
Co213      O1712   1.994       .  S
Co214       O964   2.020   1_545  S
Co215      O1712   2.013       .  S
O216      Co1709   2.002       .  S
O216       Co962   2.026       .  S
O216      Co1711   2.018   1_455  S
C217        C694   1.500       .  S
C218        C330   1.481       .  S
C218       O1701   1.264   1_655  A
C219        C319   1.484   1_455  S
C220        C375   1.478       .  S
N221        C226   1.348       .  A
N221        C225   1.349       .  A
N221        H253   1.041       .  S
N222        C229   1.352       .  A
N222        C230   1.348       .  A
N223        C228   1.358       .  A
N223        C227   1.357       .  A
N223        H254   1.039       .  S
N224        C231   1.350       .  A
N224        C232   1.349       .  A
C225        C233   1.385       .  A
C225        C241   1.405       .  A
C226        C242   1.405       .  A
C226        C234   1.387       .  A
C227        C235   1.388       .  A
C227        C244   1.424       .  A
C228        C243   1.423       .  A
C228        C236   1.387       .  A
C229        C241   1.411       .  A
C229        C237   1.385       .  A
C230        C244   1.413       .  A
C230        C238   1.387       .  A
C231        C239   1.387       .  A
C231        C242   1.412       .  A
C232        C240   1.387       .  A
C232        C243   1.411       .  A
C233        C234   1.375       .  A
C233        H245   1.082       .  S
C234        H246   1.083       .  S
C235        C236   1.378       .  A
C235        H247   1.082       .  S
C236        H248   1.082       .  S
C237        C238   1.375       .  A
C237        H249   1.082       .  S
C238        H250   1.082       .  S
C239        C240   1.376       .  A
C239        H251   1.082       .  S
C240        H252   1.082       .  S
C241        C414   1.487       .  S
C242        C333   1.480       .  S
C243        C344   1.497       .  S
C244        C431   1.495       .  S
N255        C260   1.358       .  A
N255        C259   1.355       .  A
N255        H287   1.037       .  S
N256        C263   1.351       .  A
N256        C264   1.353       .  A
N257        C262   1.351       .  A
N257        C261   1.353       .  A
N257        H288   1.038       .  S
N258        C265   1.351       .  A
N258        C266   1.350       .  A
C259        C267   1.387       .  A
C259        C275   1.423       .  A
C260        C276   1.424       .  A
C260        C268   1.387       .  A
C261        C269   1.386       .  A
C261        C278   1.412       .  A
C262        C277   1.413       .  A
C262        C270   1.388       .  A
C263        C275   1.415       .  A
C263        C271   1.389       .  A
C264        C278   1.410       .  A
C264        C272   1.384       .  A
C265        C273   1.387       .  A
C265        C276   1.413       .  A
C266        C274   1.386       .  A
C266        C277   1.411       .  A
C267        C268   1.383       .  A
C267        H279   1.082       .  S
C268        H280   1.082       .  S
C269        C270   1.378       .  A
C269        H281   1.083       .  S
C270        H282   1.082       .  S
C271        C272   1.367       .  A
C271        H283   1.082       .  S
C272        H284   1.082       .  S
C273        C274   1.368       .  A
C273        H285   1.082       .  S
C274        H286   1.082       .  S
C275        C386   1.491       .  S
C276        C361   1.495       .  S
C277        C372   1.481       .  S
C278        C403   1.486       .  S
C289        C290   1.547   1_655  S
C289       C1791   1.532       .  S
C289       C1789   1.547       .  S
C289        C316   1.552       .  S
C290        H297   1.080       .  S
C290        C291   1.367       .  D
C291       C1788   1.552   1_455  S
C291        C442   1.509       .  S
C292        C296   1.545       .  S
C292        C294   1.542       .  S
C292       C1787   1.551       .  S
C292        H298   1.107       .  S
C293       C1785   1.549       .  S
C293        H299   1.084       .  S
C293        C294   1.371       .  D
C294        C302   1.495       .  S
C295       C1785   1.534       .  S
C295        H300   1.086       .  S
C295        C296   1.363       .  D
C296        C459   1.499       .  S
C301        C302   1.403       .  A
C301        C306   1.404       .  A
C301        H308   1.084       .  S
C302       C1799   1.413       .  A
C303        C304   1.410       .  A
C303       C1798   1.418   1_455  A
C303        N310   1.437       .  S
C304       C1801   1.401   1_455  A
C304        H309   1.084       .  S
C305        C306   1.417       .  A
C305       C1800   1.405       .  A
C306        N307   1.433       .  S
N307        H311   1.045       .  S
N307        H312   1.045       .  S
N310        H313   1.045       .  S
N310        H314   1.046       .  S
C315        C316   1.419   1_455  A
C315        C320   1.406       .  A
C315        H322   1.074       .  S
C316       C1813   1.431       .  A
C317        C318   1.400       .  A
C317       C1812   1.429       .  A
C317        N324   1.434       .  S
C318       C1815   1.402       .  A
C318        H323   1.084       .  S
C319        C320   1.405   1_655  A
C319       C1814   1.400       .  A
C320        N321   1.433       .  S
N321        H325   1.046       .  S
N321        H326   1.046       .  S
N324        H327   1.041       .  S
N324        H328   1.040       .  S
C329        C334   1.398       .  A
C329       C1826   1.409       .  A
C329        H336   1.084       .  S
C330        C331   1.417   1_655  A
C330       C1825   1.410       .  A
C331        C332   1.393       .  A
C331        N338   1.433       .  S
C332       C1829   1.402   1_455  A
C332        H337   1.085       .  S
C333        C334   1.408       .  A
C333       C1828   1.401       .  A
C334        N335   1.433       .  S
N335        H339   1.044       .  S
N335        H340   1.046       .  S
N338        H341   1.043       .  S
N338        H342   1.045       .  S
C343        C348   1.403       .  A
C343       C1840   1.402       .  A
C343        H350   1.084       .  S
C344        C345   1.414       .  A
C344       C1839   1.402       .  A
C345        C346   1.408       .  A
C345        N352   1.432       .  S
C346        C347   1.403       .  A
C346        H351   1.084       .  S
C347       C1844   1.411       .  A
C348       C1843   1.415       .  A
C348        N349   1.433       .  S
N349        H353   1.045       .  S
N349        H354   1.046       .  S
N352        H355   1.046       .  S
N352        H356   1.046       .  S
C357        C358   1.409       .  A
C357        C362   1.404       .  A
C357        H364   1.083       .  S
C358       C1107   1.419       .  A
C359       C1106   1.418   1_545  A
C359       C1108   1.403       .  A
C359        N366   1.433       .  S
C360        C361   1.401       .  A
C360       C1107   1.407       .  A
C360       H1113   1.084       .  S
C361        C362   1.412       .  A
C362        N363   1.432       .  S
N363        H367   1.045       .  S
N363        H368   1.045       .  S
H365       C1108   1.084       .  S
N366        H369   1.045       .  S
N366        H370   1.046       .  S
C371        C372   1.402       .  A
C371        C376   1.399       .  A
C371        H378   1.084       .  S
C372        C373   1.414       .  A
C373        C374   1.399       .  A
C373        N380   1.439       .  S
C374        C375   1.408       .  A
C374        H379   1.084       .  S
C375        C376   1.409       .  A
C376        N377   1.432       .  S
N377        H381   1.046       .  S
N377        H382   1.046       .  S
N380        H383   1.043       .  S
N380        H384   1.046       .  S
C385        C386   1.406       .  A
C385       C1138   1.408       .  A
C385       H1140   1.084       .  S
C386        C387   1.405       .  A
C387        C388   1.404       .  A
C387        N394   1.432       .  S
C388       C1137   1.408       .  A
C388        H393   1.084       .  S
C389        C390   1.414       .  A
C389       C1136   1.409   1_565  A
C390       C1133   1.408       .  A
C390        N391   1.437       .  S
N391        H396   1.046       .  S
N391       H1143   1.046       .  S
H392       C1133   1.084       .  S
N394        H397   1.045       .  S
N394       H1146   1.046       .  S
H395       N1139   1.046       .  S
H398       N1142   1.046       .  S
C399        C400   1.406       .  A
C399        C404   1.401       .  A
C399        H406   1.084       .  S
C400        C401   1.415       .  A
C401        C402   1.402       .  A
C401        N408   1.431       .  S
C402        C403   1.398       .  A
C402       H1155   1.084       .  S
C403        C404   1.411       .  A
C404        N405   1.432       .  S
N405        H409   1.045       .  S
N405        H410   1.046       .  S
H407       C1150   1.084   1_545  S
N408       H1159   1.045       .  S
N408       H1160   1.046       .  S
H411       N1156   1.045       .  S
H412       N1156   1.046       .  S
C413        C414   1.401       .  A
C413        C418   1.403       .  A
C413        H420   1.084       .  S
C414       C1911   1.415       .  A
C415        C416   1.397       .  A
C415       C1910   1.415   1_455  A
C415        N422   1.434       .  S
C416        C417   1.405   1_455  A
C416        H421   1.084       .  S
C417       C1914   1.412       .  A
C418       C1913   1.413       .  A
C418        N419   1.432       .  S
N419        H423   1.045       .  S
N419        H424   1.046       .  S
N422        H425   1.046       .  S
N422        H426   1.044       .  S
C427        C428   1.403       .  A
C427        C432   1.407       .  A
C427        H434   1.084       .  S
C428       C1925   1.412       .  A
C429        C430   1.401       .  A
C429       C1924   1.409       .  A
C429        N436   1.433       .  S
C430       C1927   1.402       .  A
C430        H435   1.084       .  S
C431        C432   1.412       .  A
C431       C1926   1.402       .  A
C432        N433   1.432       .  S
N433        H437   1.046       .  S
N433        H438   1.046       .  S
N436        H439   1.046       .  S
N436        H440   1.046       .  S
C441        C442   1.408       .  A
C441        C446   1.409       .  A
C441        H448   1.084       .  S
C442        C443   1.420       .  A
C443        C444   1.409       .  A
C443        N450   1.429       .  S
C444        C445   1.407       .  A
C444        H449   1.083       .  S
C445        C446   1.415       .  A
C446        N447   1.433       .  S
N447        H451   1.046       .  S
N447        H452   1.046       .  S
N450        H453   1.042       .  S
N450        H454   1.043       .  S
C455        C456   1.402       .  A
C455        C460   1.410       .  A
C455        H462   1.084       .  S
C456        C457   1.417       .  A
C457        C458   1.411       .  A
C457        N464   1.433       .  S
C458        C459   1.402       .  A
C458        H463   1.084       .  S
C459        C460   1.417       .  A
C460        N461   1.437       .  S
N461        H465   1.046       .  S
N461        H466   1.046       .  S
N464        H467   1.046       .  S
N464        H468   1.046       .  S
C469        C470   1.402       .  A
C469        C474   1.399       .  A
C469        H476   1.084       .  S
C470        C471   1.414       .  A
C471        C472   1.394       .  A
C471        N478   1.439       .  S
C472        C473   1.401       .  A
C472        H477   1.083       .  S
C473        C474   1.404       .  A
C474        N475   1.431       .  S
N475        H479   1.045       .  S
N475        H480   1.045       .  S
N478        H481   1.043       .  S
N478        H482   1.045       .  S
C483        C484   1.407       .  A
C483        C488   1.410       .  A
C483        H490   1.084       .  S
C484        C485   1.411       .  A
C485        C486   1.392       .  A
C485        N492   1.433       .  S
C486        C487   1.401       .  A
C486        H491   1.085       .  S
C487        C488   1.415       .  A
C488        N489   1.438       .  S
N489        H493   1.046       .  S
N489        H494   1.044       .  S
N492        H495   1.045       .  S
N492        H496   1.044       .  S
C497        C498   1.404       .  A
C497        C502   1.406       .  A
C497        H504   1.084       .  S
C498        C499   1.405       .  A
C499        C500   1.399       .  A
C499        N506   1.432       .  S
C500        C501   1.403       .  A
C500        H505   1.083       .  S
C501        C502   1.412       .  A
C502        N503   1.432       .  S
N503        H507   1.045       .  S
N503        H508   1.046       .  S
N506        H509   1.046       .  S
N506        H510   1.045       .  S
C511        C512   1.400       .  A
C511        C516   1.399       .  A
C511        H518   1.084       .  S
C512        C513   1.411       .  A
C513        C514   1.400       .  A
C513        N520   1.433       .  S
C514        C515   1.408       .  A
C514        H519   1.084       .  S
C515        C516   1.412       .  A
C516        N517   1.432       .  S
N517        H521   1.045       .  S
N517        H522   1.045       .  S
N520        H523   1.045       .  S
N520        H524   1.044       .  S
C525        C530   1.410       .  A
C525       C2022   1.408       .  A
C525        H532   1.084       .  S
C526        C527   1.416       .  A
C526       C2021   1.407   1_455  A
C527        C528   1.408       .  A
C527        N534   1.433       .  S
C528        C529   1.417       .  A
C528        H533   1.076       .  S
C529       C2026   1.418   1_455  A
C530       C2025   1.417       .  A
C530        N531   1.432       .  S
N531        H535   1.046       .  S
N531        H536   1.045       .  S
N534        H537   1.045       .  S
N534        H538   1.045       .  S
C539        C544   1.406       .  A
C539       C2036   1.407   1_455  A
C539        H546   1.083       .  S
C540        C541   1.413       .  A
C540       C2035   1.405       .  A
C541        C542   1.408       .  A
C541        N548   1.431       .  S
C542        C543   1.402       .  A
C542        H547   1.084       .  S
C543       C2040   1.417       .  A
C544       C2039   1.413   1_455  A
C544        N545   1.432       .  S
N545        H549   1.045       .  S
N545        H550   1.046       .  S
N548        H551   1.045       .  S
N548        H552   1.046       .  S
C553        C554   1.404       .  A
C553        C558   1.406       .  A
C553        H560   1.084       .  S
C554        C555   1.414       .  A
C555        C556   1.411       .  A
C555        N562   1.430       .  S
C556        C557   1.413       .  A
C556        H561   1.083       .  S
C557        C558   1.418       .  A
C558        N559   1.432       .  S
N559        H563   1.046       .  S
N559        H564   1.046       .  S
N562        H565   1.045       .  S
N562        H566   1.044       .  S
C567        C568   1.408       .  A
C567        C572   1.412       .  A
C567        H574   1.080       .  S
C568        C569   1.411       .  A
C569        C570   1.400       .  A
C569        N576   1.433       .  S
C570        C571   1.403       .  A
C570        H575   1.085       .  S
C571        C572   1.413       .  A
C572        N573   1.431       .  S
N573        H577   1.044       .  S
N573        H578   1.045       .  S
N576        H579   1.045       .  S
N576        H580   1.046       .  S
C581        C582   1.404       .  A
C581        C586   1.403       .  A
C581        H588   1.084       .  S
C582       C1331   1.407       .  A
C583        C584   1.403       .  A
C583       C1330   1.411   1_565  A
C583        N590   1.432       .  S
C584       C1333   1.411       .  A
C584        H589   1.084       .  S
C585        C586   1.421       .  A
C585       C1332   1.413       .  A
C586        N587   1.432       .  S
N587        H591   1.046       .  S
N587        H592   1.045       .  S
N590        H593   1.045   1_565  S
N590        H594   1.043       .  S
C595       C1344   1.405       .  A
C595       C1348   1.411       .  A
C595        H602   1.084       .  S
C596        C800   1.483       .  S
C596        C597   1.408   1_545  A
C596       C1343   1.406       .  A
C597        C598   1.400       .  A
C597        N604   1.432       .  S
C598        C599   1.403   1_565  A
C598        H603   1.084       .  S
C599        C600   1.410       .  A
C600       C1343   1.413       .  A
C600       N1349   1.431       .  S
N601       C1348   1.431       .  S
N601       H1353   1.046       .  S
N601       H1354   1.046       .  S
N604       H1355   1.045       .  S
N604       H1356   1.046       .  S
H605       N1349   1.046       .  S
H606       N1349   1.045       .  S
H607       N1352   1.045       .  S
H608       N1352   1.045       .  S
C609        C610   1.411       .  A
C609        C614   1.397       .  A
C609        H616   1.078       .  S
C610        C611   1.430       .  A
C611        C612   1.406       .  A
C611        N618   1.434       .  S
C612        C613   1.402       .  A
C612        H617   1.084       .  S
C613        C614   1.410       .  A
C614        N615   1.434       .  S
N615        H619   1.046       .  S
N615        H620   1.046       .  S
N618        H621   1.045       .  S
N618        H622   1.039       .  S
C623        C624   1.414       .  A
C623        C628   1.406       .  A
C623        H630   1.080       .  S
C624        C625   1.416       .  A
C625        C626   1.402       .  A
C625        N632   1.438       .  S
C626        C627   1.404       .  A
C626        H631   1.084       .  S
C627        C628   1.407       .  A
C628        N629   1.432       .  S
N629        H633   1.046       .  S
N629        H634   1.045       .  S
N632        H635   1.046       .  S
N632        H636   1.045       .  S
C637        C638   1.400       .  A
C637        C642   1.405       .  A
C637        H644   1.084       .  S
C638        C639   1.401       .  A
C639        C640   1.400       .  A
C639        N646   1.432       .  S
C640        C641   1.410       .  A
C640        H645   1.083       .  S
C641        C642   1.416       .  A
C642        N643   1.432       .  S
N643        H647   1.045       .  S
N643        H648   1.046       .  S
N646        H649   1.044       .  S
N646        H650   1.045       .  S
C651        C652   1.405       .  A
C651        C656   1.406       .  A
C651        H658   1.084       .  S
C652        C653   1.413       .  A
C653        C654   1.400       .  A
C653        N660   1.433       .  S
C654        C655   1.402       .  A
C654        H659   1.079       .  S
C655        C656   1.410       .  A
C656        N657   1.432       .  S
N657        H661   1.046       .  S
N657        H662   1.045       .  S
N660        H663   1.044       .  S
N660        H664   1.045       .  S
C665        C666   1.401       .  A
C665        C670   1.403       .  A
C665        H672   1.084       .  S
C666        C667   1.413       .  A
C667        C668   1.401       .  A
C667        N674   1.433       .  S
C668        C669   1.405       .  A
C668        H673   1.083       .  S
C669        C670   1.411       .  A
C670        N671   1.432       .  S
N671        H675   1.046       .  S
N671        H676   1.045       .  S
N674        H677   1.046       .  S
N674        H678   1.045       .  S
C679        C680   1.410       .  A
C679        C684   1.401       .  A
C679        H686   1.083       .  S
C680        C681   1.413       .  A
C681        C682   1.407       .  A
C681        N688   1.432       .  S
C682        C683   1.403       .  A
C682        H687   1.084       .  S
C683        C684   1.409       .  A
C684        N685   1.433       .  S
N685        H689   1.046       .  S
N685        H690   1.045       .  S
N688        H691   1.045       .  S
N688        H692   1.046       .  S
C693        C694   1.412       .  A
C693        C698   1.402       .  A
C693        H700   1.083       .  S
C694        C695   1.413       .  A
C695        C696   1.412       .  A
C695        N702   1.432       .  S
C696        C697   1.408       .  A
C696        H701   1.084       .  S
C697        C698   1.407       .  A
C698        N699   1.431       .  S
N699        H703   1.045       .  S
N699        H704   1.045       .  S
N702        H705   1.046       .  S
N702        H706   1.046       .  S
C707        C712   1.404       .  A
C707       C1456   1.406       .  A
C707        H714   1.084       .  S
C708        C709   1.416       .  A
C708       C1455   1.407   1_565  A
C709        C710   1.414       .  A
C709        N716   1.432       .  S
C710       C1459   1.406   1_565  A
C710        H715   1.083       .  S
C711        C712   1.419       .  A
C711       C1458   1.407       .  A
C712        N713   1.433       .  S
N713        H717   1.042       .  S
N713        H718   1.044       .  S
N716        H719   1.046       .  S
N716        H720   1.046       .  S
C721        C722   1.413       .  A
C721        C726   1.407       .  A
C721        H728   1.077       .  S
C722        C723   1.418       .  A
C723        C724   1.405       .  A
C723        N730   1.433       .  S
C724        C725   1.403       .  A
C724        H729   1.084       .  S
C725        C726   1.411       .  A
C726        N727   1.433       .  S
N727        H731   1.045       .  S
N727        H732   1.046       .  S
N730        H733   1.045       .  S
N730        H734   1.046       .  S
C735        C736   1.406       .  A
C735        C740   1.404       .  A
C735        H742   1.084       .  S
C736        C737   1.412       .  A
C737        C738   1.405       .  A
C737        N744   1.433       .  S
C738        C739   1.401       .  A
C738        H743   1.084       .  S
C739        C740   1.414       .  A
C740        N741   1.433       .  S
N741        H745   1.044       .  S
N741        H746   1.044       .  S
N744        H747   1.045       .  S
N744        H748   1.046       .  S
C749        C750   1.543       .  S
C749        C755   1.530       .  S
C749        C753   1.543       .  S
C749       C1470   1.538       .  S
C751        C752   1.545       .  S
C751       C1487   1.490       .  S
C752        C756   1.549   1_565  S
C752        C754   1.551   1_565  S
C752        H758   1.111       .  S
C753        H759   1.083       .  S
C754       C1459   1.504       .  S
C755        H760   1.087       .  S
C756       C1445   1.494       .  S
N761        C766   1.355       .  A
N761        C765   1.358   1_556  A
N761        H793   1.031   1_556  S
N762       C2265   1.353       .  A
N762        C770   1.355   1_655  A
N763        C768   1.355   1_554  A
N763        C767   1.356       .  A
N763        H794   1.032       .  S
N764       C2267   1.351   1_455  A
N764        C772   1.351       .  A
C765        C773   1.387       .  A
C765        C781   1.424       .  A
C766        C782   1.424       .  A
C766        C774   1.388       .  A
C767        C775   1.387       .  A
C767        C784   1.423       .  A
C768        C783   1.422       .  A
C768        C776   1.387       .  A
C769       N2258   1.353       .  A
C769        C781   1.418       .  A
C769        C777   1.388       .  A
C770        C784   1.418       .  A
C770        C778   1.385       .  A
C771       N2260   1.350       .  A
C771        C779   1.388       .  A
C771        C782   1.416       .  A
C772        C780   1.389       .  A
C772        C783   1.417       .  A
C773        C774   1.379   1_554  A
C773        H785   1.082       .  S
C774        H786   1.082       .  S
C775        C776   1.379   1_554  A
C775        H787   1.082       .  S
C776        H788   1.082       .  S
C777       C2274   1.367       .  A
C777        H789   1.082       .  S
C778       C2273   1.369   1_455  A
C778        H790   1.082       .  S
C779       C2276   1.368       .  A
C779        H791   1.082       .  S
C780       C2275   1.365   1_455  A
C780        H792   1.082       .  S
C781       C1400   1.496       .  S
C782       C1431   1.488       .  S
C783       C1414   1.487       .  S
C784       C1386   1.498       .  S
C795        C796   1.547       .  S
C795        C801   1.539       .  S
C795        C799   1.535       .  S
C795       C1358   1.548       .  S
C796        H803   1.083       .  S
C797        C798   1.545   1_545  S
C797       C1330   1.492       .  S
C798        C802   1.539       .  S
C798        C800   1.547   1_565  S
C798        H804   1.107       .  S
C799        H805   1.082       .  S
C802       C1372   1.494       .  S
C807       C2304   1.552       .  S
C807       C2309   1.532   1_455  S
C807        C811   1.540       .  S
C807       C1277   1.554       .  S
C808       C2303   1.552       .  S
C808        H815   1.086       .  S
C808        C809   1.374       .  D
C809        C810   1.543       .  S
C809       C1288   1.497       .  S
C810        C814   1.543       .  S
C810       C2308   1.551       .  S
C810        H816   1.110       .  S
C811        H817   1.083       .  S
C811        C812   1.369       .  D
C812       C2306   1.551       .  S
C812       C1302   1.500       .  S
C813       C2303   1.535       .  S
C813        H818   1.086       .  S
C813        C814   1.369       .  D
C814       C1316   1.495       .  S
N819        C824   1.349   1_554  A
N819        C823   1.351       .  A
N819        H851   1.039       .  S
N820        C828   1.347       .  A
N821        C826   1.354       .  A
N821        C825   1.354   1_556  A
N821        H852   1.040       .  S
N822        C830   1.350       .  A
C823        C831   1.386       .  A
C823        C839   1.410       .  A
C824        C840   1.411       .  A
C824        C832   1.388       .  A
C825        C833   1.388       .  A
C825        C842   1.417       .  A
C826        C841   1.418       .  A
C826        C834   1.387       .  A
C827        C839   1.408   1_545  A
C827        C835   1.384       .  A
C828        C842   1.409       .  A
C828        C836   1.388       .  A
C829        C837   1.389       .  A
C829        C840   1.409       .  A
C830        C838   1.385       .  A
C830        C841   1.407       .  A
C831        C832   1.376   1_554  A
C831        H843   1.083       .  S
C832        H844   1.082       .  S
C833        C834   1.375   1_554  A
C833        H845   1.082       .  S
C834        H846   1.082       .  S
C835        H847   1.082       .  S
C836        H848   1.081       .  S
C837        H849   1.082       .  S
C838        H850   1.082       .  S
C839       C1232   1.486       .  S
C840       C1260   1.472       .  S
C841       C1246   1.491       .  S
C842       C1218   1.483       .  S
O853        C861   1.260       .  A
O853       Co873   1.995       .  S
O854        C862   1.280       .  A
O854       Co874   2.029       .  S
O855        C863   1.252       .  A
O855       Co875   1.944       .  S
O856        C864   1.268       .  A
O856       Co876   1.896       .  S
O857        C863   1.273       .  A
O857       Co874   2.038       .  S
O858        C864   1.292       .  A
O858       Co873   2.098       .  S
O859        C862   1.272       .  A
O859       Co876   1.984       .  S
O860        C861   1.259       .  A
O860       Co875   1.976       .  S
C861       C1263   1.473       .  S
C862       C1305   1.506       .  S
C863       C1375   1.475       .  S
C864       C1417   1.476       .  S
O865        C878   1.264       .  A
O865       Co873   1.877       .  S
O866        C879   1.258       .  A
O866       Co874   1.949       .  S
O867        C880   1.276       .  A
O867       Co875   2.018       .  S
O868        C881   1.263       .  A
O868       Co876   2.020       .  S
O869        C881   1.255       .  A
O869       Co874   1.966       .  S
O870        C880   1.267       .  A
O870       Co873   1.973       .  S
O871        C878   1.297       .  A
O871       Co876   2.111       .  S
O872        C879   1.277       .  A
O872       Co875   2.050       .  S
Co873       O877   1.991       .  S
Co874       O877   2.023       .  S
Co875       O877   2.033       .  S
Co876       O877   2.021       .  S
C878       C1249   1.474       .  S
C879       C1319   1.482       .  S
C880       C1428   1.490       .  S
C881       C1361   1.491       .  S
O882        C890   1.262       .  A
O882       Co902   1.996       .  S
O883        C891   1.268       .  A
O883       Co903   1.970       .  S
O884        C892   1.295       .  A
O884       Co904   2.103       .  S
O885        C893   1.275       .  A
O885       Co905   2.018       .  S
O886        C892   1.264       .  A
O886       Co903   1.880       .  S
O887        C893   1.270       .  A
O887       Co902   1.982       .  S
O888        C891   1.282       .  A
O888       Co905   2.046       .  S
O889        C890   1.265       .  A
O889       Co904   2.014       .  S
C890       C1484   1.494       .  S
C891       C1389   1.503       .  S
C892       C1235   1.465       .  S
C893       C1193   1.492       .  S
O894        C907   1.271       .  A
O894       Co902   2.030       .  S
O895        C908   1.290       .  A
O895       Co903   2.090       .  S
O896        C909   1.268       .  A
O896       Co904   1.966       .  S
O897        C910   1.255       .  A
O897       Co905   1.978       .  S
O898        C910   1.261       .  A
O898       Co903   2.008       .  S
O899        C909   1.285       .  A
O899       Co902   2.052       .  S
O900        C907   1.257       .  A
O900       Co905   1.962       .  S
O901        C908   1.267       .  A
O901       Co904   1.917       .  S
Co902       O906   2.049       .  S
Co903       O906   2.007       .  S
Co904       O906   2.022       .  S
Co905       O906   2.029       .  S
C907       C1473   1.491       .  S
C908       C1403   1.488       .  S
C909       C1204   1.500       .  S
C910       C1221   1.470       .  S
O911       C2415   1.277       .  A
O911      Co1679   2.059       .  S
O912        C920   1.290       .  A
O912       Co932   2.093       .  S
O913        C921   1.257       .  A
O913       Co933   1.970   1_655  S
O914        C922   1.268       .  A
O914       Co934   1.965       .  S
O915       C2417   1.263       .  A
O916      Co1679   2.038       .  S
O917        C920   1.267       .  A
O917       Co934   1.904       .  S
O918        C919   1.257   1_655  A
O918       Co933   1.961   1_655  S
C919       C1274   1.503       .  S
C919       O2407   1.275       .  A
C920       C1148   1.485       .  S
C921       C1165   1.479       .  S
C921       O2411   1.265   1_655  A
C922       C1333   1.495       .  S
O923       C2432   1.256   1_455  A
O923       Co931   1.989       .  S
O924      Co2428   1.964       .  S
O925        C938   1.276       .  A
O925       Co933   2.032       .  S
O926        C939   1.300       .  A
O926       Co934   2.120       .  S
O927       C2435   1.260       .  A
O927      Co2428   1.871       .  S
O928       Co931   1.961       .  S
O929        C936   1.265       .  A
O929       Co934   2.021       .  S
O930        C937   1.275       .  A
O930       Co933   2.031       .  S
Co931      O1659   2.050   1_565  S
Co931      O1664   2.048   1_455  S
Co931      O2431   2.035       .  S
Co932      O2420   1.963       .  S
Co932      O2423   1.880       .  S
Co932       O935   1.997       .  S
Co933      O1683   2.044       .  S
Co934       O935   2.026       .  S
O935      Co2427   2.038       .  S
O935      Co1681   2.040   1_565  S
C936       C1291   1.488       .  S
C936       O2419   1.256       .  A
C937       C1137   1.485       .  S
C938       C1347   1.491       .  S
C939       C1176   1.481       .  S
C939       O2423   1.262       .  A
O940       Co960   1.989       .  S
O941       C2445   1.264       .  A
O941      Co2457   1.871       .  S
O942       Co962   2.033       .  S
O943        C951   1.261       .  A
O943       Co963   2.005       .  S
O944        C950   1.266       .  A
O944      Co2457   1.965       .  S
O945       C2447   1.262   1_455  A
O945       Co960   1.994       .  S
O946        C949   1.305       .  A
O946       Co963   2.130       .  S
O947        C948   1.280       .  A
O947       Co962   2.033       .  S
C948       C1456   1.503       .  S
C949       C1095   1.477       .  S
C949       O2437   1.263       .  A
C950       C1106   1.491       .  S
C951       C1053   1.483       .  S
C951       O2441   1.260       .  A
O952        C965   1.285       .  A
O952      Co2456   2.052       .  S
O953       C2462   1.263       .  A
O954        C967   1.255       .  A
O954       Co962   1.962   1_655  S
O955        C968   1.263       .  A
O955       Co963   1.896       .  S
O956        C968   1.292       .  A
O956       Co961   2.105       .  S
O957        C967   1.270   1_455  A
O958        C965   1.270       .  A
O958       Co963   1.970       .  S
O959        C966   1.256       .  A
O959       Co962   1.972   1_655  S
Co960      O2448   2.051   1_455  S
Co960       O964   2.047       .  S
Co961      O2437   1.870       .  S
Co961      O2440   1.966       .  S
Co961      O2460   1.995       .  S
Co963      O2460   2.012       .  S
O964      Co2457   1.998       .  S
O964      Co2459   2.008   1_455  S
C965       C1442   1.505       .  S
C966       C1078   1.475       .  S
C966       O2449   1.259   1_655  A
C967       C1067   1.489       .  S
C968       C1123   1.481       .  S
N969        C974   1.350       .  A
N969        C973   1.350       .  A
N969       H1001   1.038       .  S
N970        C977   1.353       .  A
N970        C978   1.351       .  A
N971        C976   1.356       .  A
N971        C975   1.357       .  A
N971       H1002   1.039       .  S
N972        C979   1.353       .  A
N972        C980   1.351       .  A
C973        C981   1.387       .  A
C973        C989   1.411       .  A
C974        C990   1.411       .  A
C974        C982   1.387       .  A
C975        C983   1.389       .  A
C975        C992   1.425       .  A
C976        C991   1.420       .  A
C976        C984   1.386       .  A
C977        C989   1.415       .  A
C977        C985   1.386       .  A
C978        C992   1.416       .  A
C978        C986   1.387       .  A
C979        C987   1.386       .  A
C979        C990   1.415       .  A
C980        C988   1.386       .  A
C980        C991   1.413       .  A
C981        C982   1.375       .  A
C981        H993   1.083       .  S
C982        H994   1.083       .  S
C983        C984   1.377       .  A
C983        H995   1.082       .  S
C984        H996   1.082       .  S
C985        C986   1.375       .  A
C985        H997   1.082       .  S
C986        H998   1.082       .  S
C987        C988   1.374       .  A
C987        H999   1.082       .  S
C988       H1000   1.082       .  S
C989       C1162   1.487       .  S
C990       C1081   1.489       .  S
C991       C1092   1.495       .  S
C992       C1179   1.500       .  S
N1003      C1008   1.354       .  A
N1003      C1007   1.355       .  A
N1003      H1035   1.035       .  S
N1004      C1011   1.349       .  A
N1004      C1012   1.350       .  A
N1005      C1010   1.350       .  A
N1005      C1009   1.351       .  A
N1005      H1036   1.038       .  S
N1006      C1013   1.351       .  A
N1006      C1014   1.352       .  A
C1007      C1015   1.387       .  A
C1007      C1023   1.420       .  A
C1008      C1024   1.420       .  A
C1008      C1016   1.388       .  A
C1009      C1017   1.386       .  A
C1009      C1026   1.409       .  A
C1010      C1025   1.410       .  A
C1010      C1018   1.387       .  A
C1011      C1023   1.410       .  A
C1011      C1019   1.388       .  A
C1012      C1026   1.407       .  A
C1012      C1020   1.385       .  A
C1013      C1021   1.388       .  A
C1013      C1024   1.414       .  A
C1014      C1022   1.385       .  A
C1014      C1025   1.412       .  A
C1015      C1016   1.382       .  A
C1015      H1027   1.083       .  S
C1016      H1028   1.082       .  S
C1017      C1018   1.376       .  A
C1017      H1029   1.082       .  S
C1018      H1030   1.082       .  S
C1019      C1020   1.368       .  A
C1019      H1031   1.082   1_565  S
C1020      H1032   1.082       .  S
C1021      C1022   1.369       .  A
C1021      H1033   1.082       .  S
C1022      H1034   1.082       .  S
C1023      C1134   1.485       .  S
C1024      C1109   1.486       .  S
C1025      C1120   1.484       .  S
C1026      C1151   1.480       .  S
C1037      C1038   1.548   1_655  S
C1037      C2539   1.531       .  S
C1037      C2537   1.552       .  S
C1037      C1064   1.552       .  S
C1038      H1045   1.081       .  S
C1038      C1039   1.365       .  D
C1039      C2536   1.545   1_455  S
C1039      C1190   1.495       .  S
C1040      C2535   1.546       .  S
C1040      C1044   1.544       .  S
C1040      C1042   1.543       .  S
C1040      H1046   1.110       .  S
C1041      C2533   1.548       .  S
C1041      H1047   1.084       .  S
C1041      C1042   1.371       .  D
C1042      C1050   1.498       .  S
C1043      C2533   1.536       .  S
C1043      H1048   1.086       .  S
C1043      C1044   1.363       .  D
C1044      C1207   1.492       .  S
C1049      C1050   1.405       .  A
C1049      C1054   1.402       .  A
C1049      H1056   1.084       .  S
C1050      C2547   1.415       .  A
C1051      C2546   1.413   1_455  A
C1051      C1052   1.409       .  A
C1051      N1058   1.431       .  S
C1052      C2549   1.403   1_455  A
C1052      H1057   1.084       .  S
C1053      C2548   1.403       .  A
C1053      C1054   1.414       .  A
C1054      N1055   1.433       .  S
N1055      H1059   1.045       .  S
N1055      H1060   1.045       .  S
N1058      H1061   1.046       .  S
N1058      H1062   1.045       .  S
C1063      C1064   1.418   1_455  A
C1063      C1068   1.407       .  A
C1063      H1070   1.075       .  S
C1064      C2561   1.430       .  A
C1065      C2560   1.430       .  A
C1065      C1066   1.400       .  A
C1065      N1072   1.435       .  S
C1066      C2563   1.401       .  A
C1066      H1071   1.084       .  S
C1067      C2562   1.402       .  A
C1067      C1068   1.406   1_655  A
C1068      N1069   1.433       .  S
N1069      H1073   1.046       .  S
N1069      H1074   1.046       .  S
N1072      H1075   1.041       .  S
N1072      H1076   1.041       .  S
C1077      C2574   1.410       .  A
C1077      C1082   1.401       .  A
C1077      H1084   1.084       .  S
C1078      C2573   1.408       .  A
C1078      C1079   1.417       .  A
C1079      C1080   1.390       .  A
C1079      N1086   1.433   1_655  S
C1080      C2577   1.401       .  A
C1080      H1085   1.085   1_655  S
C1081      C2576   1.403       .  A
C1081      C1082   1.411       .  A
C1082      N1083   1.433       .  S
N1083      H1087   1.043       .  S
N1083      H1088   1.046       .  S
N1086      H1089   1.043       .  S
N1086      H1090   1.046       .  S
C1091      C2588   1.400   1_455  A
C1091      C1096   1.404       .  A
C1091      H1098   1.084       .  S
C1092      C2587   1.403       .  A
C1092      C1093   1.411       .  A
C1093      C1094   1.405       .  A
C1093      N1100   1.432       .  S
C1094      C1095   1.402       .  A
C1094      H1099   1.084       .  S
C1095      C2592   1.412       .  A
C1096      C2591   1.411       .  A
C1096      N1097   1.436       .  S
N1097      H1101   1.045       .  S
N1097      H1102   1.045       .  S
N1100      H1103   1.046       .  S
N1100      H1104   1.045       .  S
C1105      C1106   1.408       .  A
C1105      C1110   1.401       .  A
C1105      H1112   1.081       .  S
C1107      N1114   1.433       .  S
C1108      C1109   1.399   1_545  A
C1109      C1110   1.410       .  A
C1110      N1111   1.432       .  S
N1111      H1115   1.045       .  S
N1111      H1116   1.045       .  S
N1114      H1117   1.046       .  S
N1114      H1118   1.045       .  S
C1119      C1120   1.401       .  A
C1119      C1124   1.400       .  A
C1119      H1126   1.084       .  S
C1120      C1121   1.417       .  A
C1121      C1122   1.401       .  A
C1121      N1128   1.440   1_565  S
C1122      C1123   1.406       .  A
C1122      H1127   1.084   1_565  S
C1123      C1124   1.411       .  A
C1124      N1125   1.432       .  S
N1125      H1129   1.046       .  S
N1125      H1130   1.045       .  S
N1128      H1131   1.042       .  S
N1128      H1132   1.046       .  S
C1133      C1134   1.404       .  A
C1134      C1135   1.402   1_565  A
C1135      C1136   1.401       .  A
C1135      N1142   1.432       .  S
C1136      H1141   1.084       .  S
C1137      C1138   1.412       .  A
C1138      N1139   1.437       .  S
N1139      H1144   1.046       .  S
N1142      H1145   1.045       .  S
C1147      C1148   1.406       .  A
C1147      C1152   1.398       .  A
C1147      H1154   1.083       .  S
C1148      C1149   1.416       .  A
C1149      C1150   1.401       .  A
C1149      N1156   1.431   1_565  S
C1150      C1151   1.398       .  A
C1151      C1152   1.409       .  A
C1152      N1153   1.432       .  S
N1153      H1157   1.045       .  S
N1153      H1158   1.046       .  S
C1161      C1162   1.402       .  A
C1161      C1166   1.405       .  A
C1161      H1168   1.084       .  S
C1162      C2659   1.414       .  A
C1163      C2658   1.414   1_455  A
C1163      C1164   1.396       .  A
C1163      N1170   1.433       .  S
C1164      C1165   1.404   1_455  A
C1164      H1169   1.084       .  S
C1165      C2662   1.414       .  A
C1166      C2661   1.413       .  A
C1166      N1167   1.433       .  S
N1167      H1171   1.045       .  S
N1167      H1172   1.046       .  S
N1170      H1173   1.045       .  S
N1170      H1174   1.044       .  S
C1175      C1176   1.403       .  A
C1175      C1180   1.407       .  A
C1175      H1182   1.084       .  S
C1176      C2673   1.412       .  A
C1177      C2672   1.414       .  A
C1177      C1178   1.401       .  A
C1177      N1184   1.433       .  S
C1178      C2675   1.401       .  A
C1178      H1183   1.084       .  S
C1179      C2674   1.405       .  A
C1179      C1180   1.413       .  A
C1180      N1181   1.432       .  S
N1181      H1185   1.045       .  S
N1181      H1186   1.046       .  S
N1184      H1187   1.046       .  S
N1184      H1188   1.045       .  S
C1189      C1190   1.405       .  A
C1189      C1194   1.408       .  A
C1189      H1196   1.084       .  S
C1190      C1191   1.416       .  A
C1191      C1192   1.404       .  A
C1191      N1198   1.429       .  S
C1192      C1193   1.405       .  A
C1192      H1197   1.084       .  S
C1193      C1194   1.413       .  A
C1194      N1195   1.432       .  S
N1195      H1199   1.046       .  S
N1195      H1200   1.046       .  S
N1198      H1201   1.044       .  S
N1198      H1202   1.044       .  S
C1203      C1204   1.406       .  A
C1203      C1208   1.411       .  A
C1203      H1210   1.083       .  S
C1204      C1205   1.420       .  A
C1205      C1206   1.410       .  A
C1205      N1212   1.433       .  S
C1206      C1207   1.399       .  A
C1206      H1211   1.084       .  S
C1207      C1208   1.414       .  A
C1208      N1209   1.438       .  S
N1209      H1213   1.046       .  S
N1209      H1214   1.045       .  S
N1212      H1215   1.046       .  S
N1212      H1216   1.046       .  S
C1217      C1218   1.403       .  A
C1217      C1222   1.402       .  A
C1217      H1224   1.084       .  S
C1218      C1219   1.417       .  A
C1219      C1220   1.399       .  A
C1219      N1226   1.440       .  S
C1220      C1221   1.402       .  A
C1220      H1225   1.083       .  S
C1221      C1222   1.406       .  A
C1222      N1223   1.432       .  S
N1223      H1227   1.045       .  S
N1223      H1228   1.046       .  S
N1226      H1229   1.043       .  S
N1226      H1230   1.046       .  S
C1231      C1232   1.408       .  A
C1231      C1236   1.405       .  A
C1231      H1238   1.083       .  S
C1232      C1233   1.413       .  A
C1233      C1234   1.390       .  A
C1233      N1240   1.434       .  S
C1234      C1235   1.398       .  A
C1234      H1239   1.085       .  S
C1235      C1236   1.410       .  A
C1236      N1237   1.432       .  S
N1237      H1241   1.046       .  S
N1237      H1242   1.043       .  S
N1240      H1243   1.045       .  S
N1240      H1244   1.043       .  S
C1245      C1246   1.405       .  A
C1245      C1250   1.403       .  A
C1245      H1252   1.084       .  S
C1246      C1247   1.409       .  A
C1247      C1248   1.402       .  A
C1247      N1254   1.437       .  S
C1248      C1249   1.404       .  A
C1248      H1253   1.082       .  S
C1249      C1250   1.409       .  A
C1250      N1251   1.433       .  S
N1251      H1255   1.045       .  S
N1251      H1256   1.046       .  S
N1254      H1257   1.046       .  S
N1254      H1258   1.046       .  S
C1259      C1260   1.397       .  A
C1259      C1264   1.396       .  A
C1259      H1266   1.085       .  S
C1260      C1261   1.410       .  A
C1261      C1262   1.395       .  A
C1261      N1268   1.433       .  S
C1262      C1263   1.405       .  A
C1262      H1267   1.084       .  S
C1263      C1264   1.413       .  A
C1264      N1265   1.432       .  S
N1265      H1269   1.045       .  S
N1265      H1270   1.045       .  S
N1268      H1271   1.046       .  S
N1268      H1272   1.044       .  S
C1273      C2770   1.406       .  A
C1273      C1278   1.411       .  A
C1273      H1280   1.084       .  S
C1274      C2769   1.406   1_455  A
C1274      C1275   1.418       .  A
C1275      C1276   1.412       .  A
C1275      N1282   1.432       .  S
C1276      C1277   1.417       .  A
C1276      H1281   1.078       .  S
C1277      C2774   1.418   1_455  A
C1278      C2773   1.419       .  A
C1278      N1279   1.432       .  S
N1279      H1283   1.046       .  S
N1279      H1284   1.045       .  S
N1282      H1285   1.045       .  S
N1282      H1286   1.045       .  S
C1287      C2784   1.406       .  A
C1287      C1292   1.406       .  A
C1287      H1294   1.084       .  S
C1288      C2783   1.404       .  A
C1288      C1289   1.413       .  A
C1289      C1290   1.409       .  A
C1289      N1296   1.431       .  S
C1290      C1291   1.403       .  A
C1290      H1295   1.084       .  S
C1291      C2788   1.418       .  A
C1292      C2787   1.415   1_455  A
C1292      N1293   1.432       .  S
N1293      H1297   1.045       .  S
N1293      H1298   1.046       .  S
N1296      H1299   1.045       .  S
N1296      H1300   1.046       .  S
C1301      C1302   1.403       .  A
C1301      C1306   1.405       .  A
C1301      H1308   1.084       .  S
C1302      C1303   1.414       .  A
C1303      C1304   1.412       .  A
C1303      N1310   1.431       .  S
C1304      C1305   1.412       .  A
C1304      H1309   1.083       .  S
C1305      C1306   1.418       .  A
C1306      N1307   1.433       .  S
N1307      H1311   1.046       .  S
N1307      H1312   1.046       .  S
N1310      H1313   1.046       .  S
N1310      H1314   1.044       .  S
C1315      C1316   1.407       .  A
C1315      C1320   1.411       .  A
C1315      H1322   1.080       .  S
C1316      C1317   1.412       .  A
C1317      C1318   1.398       .  A
C1317      N1324   1.433       .  S
C1318      C1319   1.402       .  A
C1318      H1323   1.085       .  S
C1319      C1320   1.413       .  A
C1320      N1321   1.431       .  S
N1321      H1325   1.044       .  S
N1321      H1326   1.045       .  S
N1324      H1327   1.045       .  S
N1324      H1328   1.046       .  S
C1329      C1330   1.408       .  A
C1329      C1334   1.402       .  A
C1329      H1336   1.084       .  S
C1331      C1332   1.401       .  A
C1331      N1338   1.432       .  S
C1332      H1337   1.083       .  S
C1333      C1334   1.418   1_565  A
C1334      N1335   1.433       .  S
N1335      H1339   1.046       .  S
N1335      H1340   1.044   1_545  S
N1338      H1341   1.046       .  S
N1338      H1342   1.044       .  S
C1343      H1350   1.083       .  S
C1344      C1345   1.408       .  A
C1345      C1346   1.402       .  A
C1345      N1352   1.430       .  S
C1346      C1347   1.404       .  A
C1346      H1351   1.084       .  S
C1347      C1348   1.412       .  A
C1357      C1358   1.410       .  A
C1357      C1362   1.395       .  A
C1357      H1364   1.078       .  S
C1358      C1359   1.431       .  A
C1359      C1360   1.411       .  A
C1359      N1366   1.434       .  S
C1360      C1361   1.405       .  A
C1360      H1365   1.084       .  S
C1361      C1362   1.409       .  A
C1362      N1363   1.434       .  S
N1363      H1367   1.046       .  S
N1363      H1368   1.046       .  S
N1366      H1369   1.045       .  S
N1366      H1370   1.039       .  S
C1371      C1372   1.410       .  A
C1371      C1376   1.408       .  A
C1371      H1378   1.082       .  S
C1372      C1373   1.413       .  A
C1373      C1374   1.398       .  A
C1373      N1380   1.439       .  S
C1374      C1375   1.404       .  A
C1374      H1379   1.085       .  S
C1375      C1376   1.413       .  A
C1376      N1377   1.438       .  S
N1377      H1381   1.046       .  S
N1377      H1382   1.042       .  S
N1380      H1383   1.046       .  S
N1380      H1384   1.046       .  S
C1385      C1386   1.401       .  A
C1385      C1390   1.409       .  A
C1385      H1392   1.084       .  S
C1386      C1387   1.405       .  A
C1387      C1388   1.409       .  A
C1387      N1394   1.431       .  S
C1388      C1389   1.412       .  A
C1388      H1393   1.083       .  S
C1389      C1390   1.418       .  A
C1390      N1391   1.430       .  S
N1391      H1395   1.046       .  S
N1391      H1396   1.046       .  S
N1394      H1397   1.045       .  S
N1394      H1398   1.045       .  S
C1399      C1400   1.405       .  A
C1399      C1404   1.407       .  A
C1399      H1406   1.084       .  S
C1400      C1401   1.412       .  A
C1401      C1402   1.401       .  A
C1401      N1408   1.432       .  S
C1402      C1403   1.407       .  A
C1402      H1407   1.082       .  S
C1403      C1404   1.412       .  A
C1404      N1405   1.432       .  S
N1405      H1409   1.046       .  S
N1405      H1410   1.045       .  S
N1408      H1411   1.045       .  S
N1408      H1412   1.045       .  S
C1413      C1414   1.403       .  A
C1413      C1418   1.407       .  A
C1413      H1420   1.084       .  S
C1414      C1415   1.411       .  A
C1415      C1416   1.396       .  A
C1415      N1422   1.433       .  S
C1416      C1417   1.402       .  A
C1416      H1421   1.084       .  S
C1417      C1418   1.414       .  A
C1418      N1419   1.438       .  S
N1419      H1423   1.046       .  S
N1419      H1424   1.046       .  S
N1422      H1425   1.045       .  S
N1422      H1426   1.044       .  S
C1427      C1428   1.410       .  A
C1427      C1432   1.401       .  A
C1427      H1434   1.083       .  S
C1428      C1429   1.411       .  A
C1429      C1430   1.404       .  A
C1429      N1436   1.432       .  S
C1430      C1431   1.403       .  A
C1430      H1435   1.084       .  S
C1431      C1432   1.413       .  A
C1432      N1433   1.439       .  S
N1433      H1437   1.045       .  S
N1433      H1438   1.043       .  S
N1436      H1439   1.044       .  S
N1436      H1440   1.046       .  S
C1441      C1442   1.412       .  A
C1441      C1446   1.404   1_565  A
C1441      H1448   1.083       .  S
C1442      C1443   1.418       .  A
C1443      C1444   1.415   1_565  A
C1443      N1450   1.437       .  S
C1444      C1445   1.406       .  A
C1444      H1449   1.084       .  S
C1445      C1446   1.408       .  A
C1446      N1447   1.431       .  S
N1447      H1451   1.045   1_545  S
N1447      H1452   1.045       .  S
N1450      H1453   1.045   1_565  S
N1450      H1454   1.046       .  S
C1455      C1460   1.405       .  A
C1455      H1462   1.084       .  S
C1456      C1457   1.417       .  A
C1457      C1458   1.415       .  A
C1457      N1464   1.432       .  S
C1458      H1463   1.082       .  S
C1459      C1460   1.418       .  A
C1460      N1461   1.433       .  S
N1461      H1465   1.043       .  S
N1461      H1466   1.043       .  S
N1464      H1467   1.045       .  S
N1464      H1468   1.046       .  S
C1469      C1470   1.413       .  A
C1469      C1474   1.407       .  A
C1469      H1476   1.079       .  S
C1470      C1471   1.416       .  A
C1471      C1472   1.404       .  A
C1471      N1478   1.433       .  S
C1472      C1473   1.405       .  A
C1472      H1477   1.084       .  S
C1473      C1474   1.410       .  A
C1474      N1475   1.432       .  S
N1475      H1479   1.046       .  S
N1475      H1480   1.046       .  S
N1478      H1481   1.046       .  S
N1478      H1482   1.046       .  S
C1483      C1484   1.408       .  A
C1483      C1488   1.406       .  A
C1483      H1490   1.084       .  S
C1484      C1485   1.413       .  A
C1485      C1486   1.409       .  A
C1485      N1492   1.432       .  S
C1486      C1487   1.402       .  A
C1486      H1491   1.084       .  S
C1487      C1488   1.415       .  A
C1488      N1489   1.433       .  S
N1489      H1493   1.044   1_565  S
N1489      H1494   1.044       .  S
N1492      H1495   1.046       .  S
N1492      H1496   1.046       .  S
C1497      C1498   1.546       .  S
C1497      C1503   1.533       .  S
C1497      C1501   1.544       .  S
C1497      C2218   1.544       .  S
C1498      H2253   1.085       .  S
C1498      C2247   1.369   1_545  D
C1499      C1500   1.542       .  S
C1499      C2246   1.368       .  D
C1499      C2235   1.485       .  S
C1500      C1504   1.543       .  S
C1500      C1502   1.546       .  S
C1500      H1506   1.110       .  S
C1501      H1507   1.082       .  S
C1501      C2250   1.368       .  D
C1502      C2249   1.368       .  D
C1502      C2207   1.496       .  S
C1503      H1508   1.087       .  S
C1503      C2252   1.362       .  D
C1504      C2251   1.362       .  D
C1504      C2193   1.487       .  S
H1505      C2246   1.086       .  S
N1509      C1514   1.355       .  A
N1509      C1513   1.357   1_556  A
N1509      H1541   1.039   1_556  S
N1510      C1518   1.353       .  A
N1511      C1516   1.354   1_554  A
N1511      C1515   1.353       .  A
N1511      H1542   1.035       .  S
N1512      C1520   1.352       .  A
C1513      C1521   1.386       .  A
C1513      C1529   1.421       .  A
C1514      C1530   1.421       .  A
C1514      C1522   1.388       .  A
C1515      C1523   1.389       .  A
C1515      C1532   1.422       .  A
C1516      C1531   1.421       .  A
C1516      C1524   1.387       .  A
C1517      C1529   1.411       .  A
C1517      C1525   1.387       .  A
C1518      C1532   1.417       .  A
C1518      C1526   1.387       .  A
C1519      C1527   1.387       .  A
C1519      C1530   1.414       .  A
C1520      C1528   1.388       .  A
C1520      C1531   1.417       .  A
C1521      C1522   1.379   1_554  A
C1521      H1533   1.082       .  S
C1522      H1534   1.082       .  S
C1523      C1524   1.380   1_554  A
C1523      H1535   1.082       .  S
C1524      H1536   1.082       .  S
C1525      H1537   1.082       .  S
C1526      H1538   1.082       .  S
C1527      H1539   1.082       .  S
C1528      H1540   1.082       .  S
C1529      C2148   1.494       .  S
C1530      C2179   1.489       .  S
C1531      C2162   1.490       .  S
C1532      C2134   1.488       .  S
C1543      C1544   1.546       .  S
C1543      C1549   1.534       .  S
C1543      C1547   1.537       .  S
C1543      C2106   1.545       .  S
C1544      H1551   1.084       .  S
C1544      C2293   1.366       .  D
C1545      C1546   1.545       .  S
C1545      C2292   1.362       .  D
C1545      C2078   1.491       .  S
C1546      C1550   1.541       .  S
C1546      C1548   1.550       .  S
C1546      H1552   1.109       .  S
C1547      H1553   1.085       .  S
C1547      C2296   1.364       .  D
C1548      C2295   1.363       .  D
C1548      C2840   1.484       .  S
C1549      H2302   1.086       .  S
C1549      C2298   1.369   1_545  D
C1550      C2297   1.372       .  D
C1550      C2120   1.498       .  S
H1554      C2297   1.084       .  S
C1555      C1559   1.540       .  S
C1555      C2025   1.556       .  S
C1556      H1563   1.086       .  S
C1556      C1557   1.375       .  D
C1557      C1558   1.545       .  S
C1557      C2036   1.499   1_455  S
C1558      C1562   1.543   1_455  S
C1558      H1564   1.110       .  S
C1559      H1565   1.082       .  S
C1559      C1560   1.365       .  D
C1560      C2050   1.491       .  S
C1561      H1566   1.087       .  S
C1561      C1562   1.368       .  D
C1562      C2064   1.490       .  S
N1567      C1572   1.350   1_554  A
N1567      C1571   1.348       .  A
N1567      H1599   1.040       .  S
N1568      C2323   1.347       .  A
N1568      C1576   1.347       .  A
N1569      C1574   1.352       .  A
N1569      C1573   1.355   1_556  A
N1569      H1600   1.040   1_556  S
N1570      C2325   1.350   1_545  A
N1570      C1578   1.349       .  A
C1571      C1579   1.387       .  A
C1571      C1587   1.408       .  A
C1572      C1588   1.408       .  A
C1572      C1580   1.387       .  A
C1573      C1581   1.386       .  A
C1573      C1590   1.414       .  A
C1574      C1589   1.418       .  A
C1574      C1582   1.389       .  A
C1575      N2316   1.349       .  A
C1575      C1587   1.405       .  A
C1575      C1583   1.385       .  A
C1576      C1590   1.406       .  A
C1576      C1584   1.387       .  A
C1577      N2318   1.348       .  A
C1577      C1585   1.386       .  A
C1577      C1588   1.409       .  A
C1578      C1586   1.386       .  A
C1578      C1589   1.410       .  A
C1579      C1580   1.376   1_554  A
C1579      H1591   1.083       .  S
C1580      H1592   1.082       .  S
C1581      C1582   1.374   1_554  A
C1581      H1593   1.082       .  S
C1582      H1594   1.082       .  S
C1583      C2332   1.373       .  A
C1583      H1595   1.082       .  S
C1584      C2331   1.372       .  A
C1584      H1596   1.082       .  S
C1585      C2334   1.375       .  A
C1585      H1597   1.082       .  S
C1586      C2333   1.375   1_545  A
C1586      H1598   1.082       .  S
C1587      C1980   1.477       .  S
C1588      C2008   1.478       .  S
C1589      C1994   1.487       .  S
C1590      C1966   1.480       .  S
O1601      C1609   1.260       .  A
O1601     Co1621   2.000       .  S
O1602      C1610   1.280       .  A
O1602     Co1622   2.031       .  S
O1603      C1611   1.256       .  A
O1603     Co1623   1.950       .  S
O1604      C1612   1.269       .  A
O1604     Co1624   1.907       .  S
O1605      C1611   1.273       .  A
O1605     Co1622   2.038       .  S
O1606      C1612   1.292       .  A
O1606     Co1621   2.091       .  S
O1607      C1610   1.271       .  A
O1607     Co1624   1.977       .  S
O1608      C1609   1.257       .  A
O1608     Co1623   1.977       .  S
C1609      C2011   1.475       .  S
C1610      C2053   1.499       .  S
C1611      C2123   1.478       .  S
C1612      C2165   1.487       .  S
O1613      C1626   1.261       .  A
O1613     Co1621   1.875       .  S
O1614      C1627   1.258       .  A
O1614     Co1622   1.952       .  S
O1615      C1628   1.279       .  A
O1615     Co1623   2.031       .  S
O1616      C1629   1.265       .  A
O1616     Co1624   2.018       .  S
O1617      C1629   1.255       .  A
O1617     Co1622   1.967       .  S
O1618      C1628   1.264       .  A
O1618     Co1621   1.963       .  S
O1619      C1626   1.296       .  A
O1619     Co1624   2.115       .  S
O1620      C1627   1.273       .  A
O1620     Co1623   2.037       .  S
Co1621     O1625   1.993       .  S
Co1622     O1625   2.027       .  S
Co1623     O1625   2.038       .  S
Co1624     O1625   2.023       .  S
C1626      C1997   1.473       .  S
C1627      C2067   1.477       .  S
C1628      C2176   1.492       .  S
C1629      C2109   1.490       .  S
O1630      C1638   1.262       .  A
O1630     Co1650   1.990       .  S
O1631      C1639   1.265       .  A
O1631     Co1651   1.957       .  S
O1632      C1640   1.291       .  A
O1632     Co1652   2.095       .  S
O1633      C1641   1.272       .  A
O1633     Co1653   2.012       .  S
O1634      C1640   1.263       .  A
O1634     Co1651   1.881       .  S
O1635      C1641   1.271       .  A
O1635     Co1650   1.990       .  S
O1636      C1639   1.281       .  A
O1636     Co1653   2.037       .  S
O1637      C1638   1.266       .  A
O1637     Co1652   2.009       .  S
C1638      C2232   1.490       .  S
C1639      C2137   1.490       .  S
C1640      C1983   1.456       .  S
C1641      C1941   1.498       .  S
O1642      C1655   1.274       .  A
O1642     Co1650   2.033       .  S
O1643      C1656   1.290       .  A
O1643     Co1651   2.086       .  S
O1644      C1657   1.267       .  A
O1644     Co1652   1.953       .  S
O1645      C1658   1.256       .  A
O1645     Co1653   1.976       .  S
O1646      C1658   1.262       .  A
O1646     Co1651   2.009       .  S
O1647      C1657   1.286       .  A
O1647     Co1650   2.048       .  S
O1648      C1655   1.260       .  A
O1648     Co1653   1.963       .  S
O1649      C1656   1.269       .  A
O1649     Co1652   1.920       .  S
Co1650     O1654   2.031       .  S
Co1651     O1654   1.995       .  S
Co1652     O1654   2.016       .  S
Co1653     O1654   2.020       .  S
C1655      C2221   1.492       .  S
C1656      C2151   1.491       .  S
C1657      C1952   1.486       .  S
C1658      C1969   1.466       .  S
O1660      C1668   1.294       .  A
O1660     Co1680   2.108   1_655  S
O1661      C1669   1.258       .  A
O1661     Co1681   1.979       .  S
O1662      C1670   1.270       .  A
O1662     Co1682   1.962       .  S
O1663     Co2428   2.006   1_545  S
O1664      C2418   1.284       .  A
O1665      C1668   1.264       .  A
O1665     Co1682   1.906       .  S
O1666      C1667   1.255       .  A
O1666     Co1681   1.959       .  S
C1667      C2022   1.502       .  S
C1668      C1896   1.494       .  S
C1669      C1913   1.481       .  S
C1670      C2081   1.500       .  S
C1670      O2412   1.284       .  A
O1671     Co1679   1.983       .  S
O1672      C2433   1.261       .  A
O1673      C1686   1.278       .  A
O1673     Co1681   2.041       .  S
O1674      C1687   1.298       .  A
O1674     Co1682   2.111   1_455  S
O1676      C2434   1.261       .  A
O1676     Co1679   1.958       .  S
O1677      C1684   1.260       .  A
O1677     Co1682   2.008       .  S
O1678      C1685   1.276   1_545  A
O1678     Co1681   2.026       .  S
Co1680     O2411   2.009       .  S
Co1680     O1683   2.007       .  S
Co1682     O1683   2.022   1_655  S
C1684      C2039   1.484       .  S
C1685      C1885   1.481       .  S
C1685      O2420   1.264       .  A
C1686      C2095   1.485       .  S
C1686      O2424   1.260   1_545  A
C1687      C1924   1.470       .  S
O1688      C2444   1.269       .  A
O1688     Co1708   1.981       .  S
O1690      C2446   1.278   1_545  A
O1690     Co1710   2.045       .  S
O1691      C1699   1.260       .  A
O1691     Co1711   2.004       .  S
O1692      C1698   1.265       .  A
O1693     Co1708   1.994       .  S
O1694      C1697   1.306   1_655  A
O1694     Co1711   2.133       .  S
O1695      C1696   1.279   1_545  A
O1695     Co1710   2.027       .  S
C1696      C2204   1.494       .  S
C1696      O2436   1.269       .  A
C1697      C1843   1.481       .  S
C1698      C1854   1.500       .  S
C1698      O2438   1.280       .  A
C1699      C1801   1.482       .  S
O1700      C1713   1.284       .  A
O1701     Co2457   2.004   1_545  S
O1702      C1715   1.257       .  A
O1702     Co1710   1.964       .  S
O1703      C1716   1.262       .  A
O1703     Co1711   1.902       .  S
O1704      C1716   1.293       .  A
O1704     Co1709   2.111   1_655  S
O1705      C1715   1.271       .  A
O1705     Co2456   2.035   1_545  S
O1706      C1713   1.268       .  A
O1706     Co1711   1.962       .  S
O1707      C1714   1.258       .  A
O1707     Co1710   1.973       .  S
Co1708     O2453   2.033       .  S
Co1708     O1712   2.044       .  S
Co1709     O2449   1.991       .  S
Co1710     O2460   2.029   1_545  S
O1712     Co2458   2.024       .  S
C1713      C2190   1.491       .  S
C1714      C1826   1.479       .  S
C1715      C1815   1.495       .  S
C1716      C1871   1.486       .  S
N1717      C1722   1.346       .  A
N1717      C1721   1.347       .  A
N1717      H1749   1.042   1_655  S
N1718      C1725   1.351       .  A
N1718      C1726   1.347   1_655  A
N1719      C1724   1.356   1_455  A
N1719      C1723   1.354   1_455  A
N1719      H1750   1.040       .  S
N1720      C1727   1.350       .  A
N1720      C1728   1.348   1_655  A
C1721      C1729   1.385       .  A
C1721      C1737   1.403       .  A
C1722      C1738   1.404       .  A
C1722      C1730   1.387       .  A
C1723      C1731   1.388       .  A
C1723      C1740   1.420   1_655  A
C1724      C1739   1.421   1_655  A
C1724      C1732   1.387       .  A
C1725      C1737   1.410       .  A
C1725      C1733   1.385   1_655  A
C1726      C1740   1.411       .  A
C1726      C1734   1.387       .  A
C1727      C1735   1.386   1_655  A
C1727      C1738   1.410       .  A
C1728      C1736   1.386       .  A
C1728      C1739   1.410       .  A
C1729      C1730   1.375       .  A
C1729      H1741   1.082       .  S
C1730      H1742   1.083       .  S
C1731      C1732   1.379       .  A
C1731      H1743   1.083       .  S
C1732      H1744   1.082       .  S
C1733      C1734   1.377       .  A
C1733      H1745   1.082       .  S
C1734      H1746   1.082       .  S
C1735      C1736   1.378       .  A
C1735      H1747   1.082       .  S
C1736      H1748   1.082       .  S
C1737      C1910   1.484       .  S
C1738      C1829   1.480       .  S
C1739      C1840   1.495       .  S
C1740      C1927   1.486       .  S
N1751      C1756   1.358       .  A
N1751      C1755   1.354       .  A
N1751      H1783   1.037       .  S
N1752      C1759   1.352       .  A
N1752      C1760   1.356       .  A
N1753      C1758   1.352       .  A
N1753      C1757   1.353       .  A
N1753      H1784   1.037       .  S
N1754      C1761   1.353       .  A
N1754      C1762   1.352       .  A
C1755      C1763   1.388       .  A
C1755      C1771   1.423       .  A
C1756      C1772   1.424       .  A
C1756      C1764   1.387       .  A
C1757      C1765   1.387       .  A
C1757      C1774   1.416       .  A
C1758      C1773   1.416       .  A
C1758      C1766   1.387       .  A
C1759      C1771   1.419       .  A
C1759      C1767   1.389       .  A
C1760      C1774   1.416       .  A
C1760      C1768   1.385       .  A
C1761      C1769   1.387       .  A
C1761      C1772   1.415       .  A
C1762      C1770   1.386       .  A
C1762      C1773   1.413       .  A
C1763      C1764   1.383       .  A
C1763      H1775   1.083       .  S
C1764      H1776   1.082       .  S
C1765      C1766   1.379       .  A
C1765      H1777   1.083       .  S
C1766      H1778   1.082       .  S
C1767      C1768   1.371       .  A
C1767      H1779   1.082       .  S
C1768      H1780   1.082       .  S
C1769      C1770   1.368       .  A
C1769      H1781   1.082       .  S
C1770      H1782   1.082       .  S
C1771      C1882   1.491       .  S
C1772      C1857   1.497       .  S
C1773      C1868   1.487       .  S
C1774      C1899   1.495       .  S
C1785      C1786   1.545       .  S
C1785      C1812   1.556       .  S
C1786      H1793   1.082       .  S
C1786      C1787   1.371       .  D
C1787      C1938   1.505       .  S
C1788      C1792   1.545       .  S
C1788      C1790   1.543       .  S
C1788      H1794   1.107       .  S
C1789      H1795   1.084       .  S
C1789      C1790   1.373       .  D
C1790      C1798   1.499       .  S
C1791      H1796   1.086       .  S
C1791      C1792   1.361       .  D
C1792      C1955   1.491       .  S
C1797      C1798   1.407       .  A
C1797      C1802   1.403       .  A
C1797      H1804   1.084       .  S
C1799      C1800   1.409       .  A
C1799      N1806   1.432       .  S
C1800      H1805   1.084       .  S
C1801      C1802   1.414       .  A
C1802      N1803   1.433       .  S
N1803      H1807   1.045       .  S
N1803      H1808   1.045       .  S
N1806      H1809   1.046       .  S
N1806      H1810   1.045       .  S
C1811      C1812   1.419       .  A
C1811      C1816   1.415       .  A
C1811      H1818   1.076       .  S
C1813      C1814   1.399       .  A
C1813      N1820   1.434       .  S
C1814      H1819   1.084       .  S
C1815      C1816   1.411       .  A
C1816      N1817   1.438       .  S
N1817      H1821   1.046       .  S
N1817      H1822   1.046       .  S
N1820      H1823   1.041       .  S
N1820      H1824   1.041       .  S
C1825      C1830   1.399       .  A
C1825      H1832   1.084       .  S
C1826      C1827   1.416       .  A
C1827      C1828   1.393       .  A
C1827      N1834   1.432       .  S
C1828      H1833   1.085       .  S
C1829      C1830   1.408       .  A
C1830      N1831   1.433       .  S
N1831      H1835   1.044       .  S
N1831      H1836   1.046       .  S
N1834      H1837   1.043       .  S
N1834      H1838   1.045       .  S
C1839      C1844   1.401       .  A
C1839      H1846   1.084       .  S
C1840      C1841   1.413   1_455  A
C1841      C1842   1.407       .  A
C1841      N1848   1.432       .  S
C1842      C1843   1.402   1_655  A
C1842      H1847   1.084       .  S
C1844      N1845   1.432       .  S
N1845      H1849   1.045       .  S
N1845      H1850   1.046       .  S
N1848      H1851   1.045       .  S
N1848      H1852   1.045       .  S
C1853      C1854   1.410       .  A
C1853      C1858   1.404       .  A
C1853      H1860   1.083       .  S
C1854      C2603   1.419       .  A
C1855      C2602   1.418   1_545  A
C1855      C2604   1.411       .  A
C1855      N1862   1.433       .  S
C1856      C2603   1.410       .  A
C1856      C1857   1.403       .  A
C1856      H2609   1.084       .  S
C1857      C1858   1.411       .  A
C1858      N1859   1.432       .  S
N1859      H1863   1.045       .  S
N1859      H1864   1.045       .  S
H1861      C2604   1.084       .  S
N1862      H1865   1.046       .  S
N1862      H1866   1.045       .  S
C1867      C1868   1.401       .  A
C1867      C1872   1.403       .  A
C1867      H1874   1.084       .  S
C1868      C1869   1.416       .  A
C1869      C1870   1.403       .  A
C1869      N1876   1.439       .  S
C1870      C1871   1.405       .  A
C1870      H1875   1.084       .  S
C1871      C1872   1.414       .  A
C1872      N1873   1.432       .  S
N1873      H1877   1.046       .  S
N1873      H1878   1.046       .  S
N1876      H1879   1.043       .  S
N1876      H1880   1.046       .  S
C1881      C1882   1.404       .  A
C1881      C2634   1.407       .  A
C1881      H2636   1.084       .  S
C1882      C1883   1.406       .  A
C1883      C1884   1.403       .  A
C1883      N1890   1.432       .  S
C1884      C2633   1.407       .  A
C1884      H1889   1.084       .  S
C1885      C2632   1.408   1_565  A
C1885      C1886   1.410       .  A
C1886      C2629   1.406       .  A
C1886      N1887   1.437       .  S
N1887      H2639   1.046       .  S
N1887      H1892   1.046       .  S
H1888      C2629   1.084       .  S
N1890      H1893   1.046       .  S
N1890      H2642   1.046       .  S
H1891      N2635   1.046       .  S
H1894      N2638   1.046       .  S
C1895      C1896   1.410       .  A
C1895      C1900   1.404       .  A
C1895      H1902   1.084       .  S
C1896      C1897   1.415       .  A
C1897      C1898   1.406       .  A
C1897      N1904   1.432       .  S
C1898      C1899   1.402       .  A
C1898      H2651   1.084       .  S
C1899      C1900   1.412       .  A
C1900      N1901   1.432       .  S
N1901      H1905   1.045       .  S
N1901      H1906   1.046       .  S
H1903      C2646   1.084   1_545  S
N1904      H2655   1.046       .  S
N1904      H2656   1.046       .  S
H1907      N2652   1.045       .  S
H1908      N2652   1.046       .  S
C1909      C1910   1.400       .  A
C1909      C1914   1.402       .  A
C1909      H1916   1.084       .  S
C1911      C1912   1.397       .  A
C1911      N1918   1.433       .  S
C1912      C1913   1.404       .  A
C1912      H1917   1.084       .  S
C1914      N1915   1.432       .  S
N1915      H1919   1.046       .  S
N1915      H1920   1.046       .  S
N1918      H1921   1.045       .  S
N1918      H1922   1.044       .  S
C1923      C1924   1.402   1_655  A
C1923      C1928   1.403       .  A
C1923      H1930   1.084       .  S
C1925      C1926   1.403       .  A
C1925      N1932   1.433       .  S
C1926      H1931   1.084       .  S
C1927      C1928   1.409   1_455  A
C1928      N1929   1.432       .  S
N1929      H1933   1.046       .  S
N1929      H1934   1.046       .  S
N1932      H1935   1.046       .  S
N1932      H1936   1.046       .  S
C1937      C1938   1.406       .  A
C1937      C1942   1.408       .  A
C1937      H1944   1.084       .  S
C1938      C1939   1.421       .  A
C1939      C1940   1.405       .  A
C1939      N1946   1.428       .  S
C1940      C1941   1.405       .  A
C1940      H1945   1.084       .  S
C1941      C1942   1.418       .  A
C1942      N1943   1.438       .  S
N1943      H1947   1.045       .  S
N1943      H1948   1.046       .  S
N1946      H1949   1.042       .  S
N1946      H1950   1.042       .  S
C1951      C1952   1.401       .  A
C1951      C1956   1.408       .  A
C1951      H1958   1.084       .  S
C1952      C1953   1.416       .  A
C1953      C1954   1.405       .  A
C1953      N1960   1.433       .  S
C1954      C1955   1.399       .  A
C1954      H1959   1.084       .  S
C1955      C1956   1.418       .  A
C1956      N1957   1.437       .  S
N1957      H1961   1.046       .  S
N1957      H1962   1.046       .  S
N1960      H1963   1.046       .  S
N1960      H1964   1.046       .  S
C1965      C1966   1.401       .  A
C1965      C1970   1.401       .  A
C1965      H1972   1.084       .  S
C1966      C1967   1.411       .  A
C1967      C1968   1.397       .  A
C1967      N1974   1.433       .  S
C1968      C1969   1.403       .  A
C1968      H1973   1.084       .  S
C1969      C1970   1.407       .  A
C1970      N1971   1.431       .  S
N1971      H1975   1.045       .  S
N1971      H1976   1.045       .  S
N1974      H1977   1.045       .  S
N1974      H1978   1.046       .  S
C1979      C1980   1.404       .  A
C1979      C1984   1.403       .  A
C1979      H1986   1.084       .  S
C1980      C1981   1.412       .  A
C1981      C1982   1.390       .  A
C1981      N1988   1.434       .  S
C1982      C1983   1.399       .  A
C1982      H1987   1.085       .  S
C1983      C1984   1.402       .  A
C1984      N1985   1.431       .  S
N1985      H1989   1.045       .  S
N1985      H1990   1.046       .  S
N1988      H1991   1.045       .  S
N1988      H1992   1.044       .  S
C1993      C1994   1.405       .  A
C1993      C1998   1.404       .  A
C1993      H2000   1.084       .  S
C1994      C1995   1.406       .  A
C1995      C1996   1.397       .  A
C1995      N2002   1.433       .  S
C1996      C1997   1.404       .  A
C1996      H2001   1.082       .  S
C1997      C1998   1.408       .  A
C1998      N1999   1.432       .  S
N1999      H2003   1.046       .  S
N1999      H2004   1.046       .  S
N2002      H2005   1.046       .  S
N2002      H2006   1.046       .  S
C2007      C2008   1.399       .  A
C2007      C2012   1.399       .  A
C2007      H2014   1.084       .  S
C2008      C2009   1.410       .  A
C2009      C2010   1.397       .  A
C2009      N2016   1.432       .  S
C2010      C2011   1.405       .  A
C2010      H2015   1.084       .  S
C2011      C2012   1.412       .  A
C2012      N2013   1.432       .  S
N2013      H2017   1.045       .  S
N2013      H2018   1.045       .  S
N2016      H2019   1.046       .  S
N2016      H2020   1.045       .  S
C2021      C2026   1.411       .  A
C2021      H2028   1.084       .  S
C2022      C2023   1.416       .  A
C2023      C2024   1.410       .  A
C2023      N2030   1.433       .  S
C2024      C2025   1.417       .  A
C2024      H2029   1.077       .  S
C2026      N2027   1.432       .  S
N2027      H2031   1.046       .  S
N2027      H2032   1.046       .  S
N2030      H2033   1.045       .  S
N2030      H2034   1.045       .  S
C2035      C2040   1.406       .  A
C2035      H2042   1.084       .  S
C2036      C2037   1.414       .  A
C2037      C2038   1.408       .  A
C2037      N2044   1.431       .  S
C2038      C2039   1.403       .  A
C2038      H2043   1.084       .  S
C2040      N2041   1.433       .  S
N2041      H2045   1.045       .  S
N2041      H2046   1.046       .  S
N2044      H2047   1.046       .  S
N2044      H2048   1.046       .  S
C2049      C2050   1.404       .  A
C2049      C2054   1.407       .  A
C2049      H2056   1.084       .  S
C2050      C2051   1.410       .  A
C2051      C2052   1.405       .  A
C2051      N2058   1.430       .  S
C2052      C2053   1.411       .  A
C2052      H2057   1.083       .  S
C2053      C2054   1.416       .  A
C2054      N2055   1.432       .  S
N2055      H2059   1.045       .  S
N2055      H2060   1.046       .  S
N2058      H2061   1.046       .  S
N2058      H2062   1.044       .  S
C2063      C2064   1.405       .  A
C2063      C2068   1.408       .  A
C2063      H2070   1.081       .  S
C2064      C2065   1.411       .  A
C2065      C2066   1.398       .  A
C2065      N2072   1.433       .  S
C2066      C2067   1.401       .  A
C2066      H2071   1.085       .  S
C2067      C2068   1.413       .  A
C2068      N2069   1.430       .  S
N2069      H2073   1.043       .  S
N2069      H2074   1.045       .  S
N2072      H2075   1.045       .  S
N2072      H2076   1.046       .  S
C2077      C2078   1.405       .  A
C2077      C2082   1.402       .  A
C2077      H2084   1.084       .  S
C2078      C2827   1.409       .  A
C2079      C2826   1.411       .  A
C2079      C2080   1.406   1_545  A
C2079      N2086   1.432       .  S
C2080      C2829   1.413       .  A
C2080      H2085   1.083       .  S
C2081      C2828   1.414       .  A
C2081      C2082   1.420       .  A
C2082      N2083   1.432       .  S
N2083      H2087   1.046       .  S
N2083      H2088   1.045       .  S
N2086      H2089   1.046       .  S
N2086      H2090   1.043   1_545  S
C2091      C2840   1.406       .  A
C2091      C2844   1.411       .  A
C2091      H2098   1.084       .  S
C2092      C2296   1.489       .  S
C2092      C2839   1.406       .  A
C2092      C2093   1.410   1_545  A
C2093      C2094   1.404       .  A
C2093      N2100   1.433       .  S
C2094      C2095   1.404   1_565  A
C2094      H2099   1.084       .  S
C2095      C2096   1.409       .  A
C2096      C2839   1.414       .  A
C2096      N2845   1.431       .  S
N2097      C2844   1.431       .  S
N2097      H2849   1.046       .  S
N2097      H2850   1.045       .  S
N2100      H2851   1.045       .  S
N2100      H2852   1.046       .  S
H2101      N2845   1.046       .  S
H2102      N2845   1.045       .  S
H2103      N2848   1.045       .  S
H2104      N2848   1.046       .  S
C2105      C2106   1.408       .  A
C2105      C2110   1.399       .  A
C2105      H2112   1.080       .  S
C2106      C2107   1.430       .  A
C2107      C2108   1.409       .  A
C2107      N2114   1.437       .  S
C2108      C2109   1.403       .  A
C2108      H2113   1.084       .  S
C2109      C2110   1.412       .  A
C2110      N2111   1.434       .  S
N2111      H2115   1.046       .  S
N2111      H2116   1.046       .  S
N2114      H2117   1.041       .  S
N2114      H2118   1.046       .  S
C2119      C2120   1.412       .  A
C2119      C2124   1.408       .  A
C2119      H2126   1.082       .  S
C2120      C2121   1.412       .  A
C2121      C2122   1.396       .  A
C2121      N2128   1.433       .  S
C2122      C2123   1.401       .  A
C2122      H2127   1.085       .  S
C2123      C2124   1.410       .  A
C2124      N2125   1.431       .  S
N2125      H2129   1.045       .  S
N2125      H2130   1.045       .  S
N2128      H2131   1.046       .  S
N2128      H2132   1.046       .  S
C2133      C2134   1.400       .  A
C2133      C2138   1.404       .  A
C2133      H2140   1.084       .  S
C2134      C2135   1.404       .  A
C2135      C2136   1.403       .  A
C2135      N2142   1.431       .  S
C2136      C2137   1.409       .  A
C2136      H2141   1.083       .  S
C2137      C2138   1.418       .  A
C2138      N2139   1.432       .  S
N2139      H2143   1.046       .  S
N2139      H2144   1.046       .  S
N2142      H2145   1.046       .  S
N2142      H2146   1.045       .  S
C2147      C2148   1.407       .  A
C2147      C2152   1.407       .  A
C2147      H2154   1.084       .  S
C2148      C2149   1.409       .  A
C2149      C2150   1.398       .  A
C2149      N2156   1.433       .  S
C2150      C2151   1.408       .  A
C2150      H2155   1.080       .  S
C2151      C2152   1.411       .  A
C2152      N2153   1.432       .  S
N2153      H2157   1.046       .  S
N2153      H2158   1.046       .  S
N2156      H2159   1.044       .  S
N2156      H2160   1.046       .  S
C2161      C2162   1.399       .  A
C2161      C2166   1.406       .  A
C2161      H2168   1.084       .  S
C2162      C2163   1.412       .  A
C2163      C2164   1.401       .  A
C2163      N2170   1.432       .  S
C2164      C2165   1.406       .  A
C2164      H2169   1.084       .  S
C2165      C2166   1.418       .  A
C2166      N2167   1.437       .  S
N2167      H2171   1.046       .  S
N2167      H2172   1.046       .  S
N2170      H2173   1.046       .  S
N2170      H2174   1.045       .  S
C2175      C2176   1.408       .  A
C2175      C2180   1.398       .  A
C2175      H2182   1.083       .  S
C2176      C2177   1.418       .  A
C2177      C2178   1.408       .  A
C2177      N2184   1.437       .  S
C2178      C2179   1.402       .  A
C2178      H2183   1.084       .  S
C2179      C2180   1.409       .  A
C2180      N2181   1.432       .  S
N2181      H2185   1.045       .  S
N2181      H2186   1.045       .  S
N2184      H2187   1.046       .  S
N2184      H2188   1.046       .  S
C2189      C2190   1.410       .  A
C2189      C2194   1.401       .  A
C2189      H2196   1.084       .  S
C2190      C2191   1.411       .  A
C2191      C2192   1.407       .  A
C2191      N2198   1.432       .  S
C2192      C2193   1.406       .  A
C2192      H2197   1.084       .  S
C2193      C2194   1.410       .  A
C2194      N2195   1.431       .  S
N2195      H2199   1.044       .  S
N2195      H2200   1.044       .  S
N2198      H2201   1.046       .  S
N2198      H2202   1.045       .  S
C2203      C2952   1.406       .  A
C2203      C2208   1.400       .  A
C2203      H2210   1.084       .  S
C2204      C2951   1.404   1_565  A
C2204      C2205   1.415       .  A
C2205      C2206   1.410       .  A
C2205      N2212   1.432       .  S
C2206      C2955   1.404   1_565  A
C2206      H2211   1.082       .  S
C2207      C2954   1.405       .  A
C2207      C2208   1.418       .  A
C2208      N2209   1.434       .  S
N2209      H2213   1.041       .  S
N2209      H2214   1.044       .  S
N2212      H2215   1.045       .  S
N2212      H2216   1.046       .  S
C2217      C2218   1.414       .  A
C2217      C2222   1.409       .  A
C2217      H2224   1.077       .  S
C2218      C2219   1.417       .  A
C2219      C2220   1.405       .  A
C2219      N2226   1.433       .  S
C2220      C2221   1.404       .  A
C2220      H2225   1.084       .  S
C2221      C2222   1.411       .  A
C2222      N2223   1.433       .  S
N2223      H2227   1.046       .  S
N2223      H2228   1.046       .  S
N2226      H2229   1.046       .  S
N2226      H2230   1.046       .  S
C2231      C2232   1.408       .  A
C2231      C2236   1.404       .  A
C2231      H2238   1.084       .  S
C2232      C2233   1.413       .  A
C2233      C2234   1.406       .  A
C2233      N2240   1.432       .  S
C2234      C2235   1.401       .  A
C2234      H2239   1.084       .  S
C2235      C2236   1.413       .  A
C2236      N2237   1.433       .  S
N2237      H2241   1.045       .  S
N2237      H2242   1.044       .  S
N2240      H2243   1.046       .  S
N2240      H2244   1.046       .  S
C2245      C2246   1.542       .  S
C2245      C2251   1.536       .  S
C2245      C2249   1.546       .  S
C2245      C2966   1.546       .  S
C2247      C2248   1.545       .  S
C2247      C2983   1.494       .  S
C2248      C2252   1.548   1_565  S
C2248      C2250   1.550   1_565  S
C2248      H2254   1.110       .  S
C2249      H2255   1.079       .  S
C2250      C2955   1.497       .  S
C2251      H2256   1.087       .  S
C2252      C2941   1.491       .  S
N2257      C2262   1.354       .  A
N2257      C2261   1.355   1_556  A
N2257      H2289   1.035       .  S
N2258      C2266   1.350       .  A
N2259      C2264   1.359   1_554  A
N2259      C2263   1.355       .  A
N2259      H2290   1.036       .  S
N2260      C2268   1.351       .  A
C2261      C2269   1.388       .  A
C2261      C2277   1.421       .  A
C2262      C2278   1.419       .  A
C2262      C2270   1.387       .  A
C2263      C2271   1.388       .  A
C2263      C2280   1.421       .  A
C2264      C2279   1.421       .  A
C2264      C2272   1.386       .  A
C2265      C2277   1.421       .  A
C2265      C2273   1.388       .  A
C2266      C2280   1.415       .  A
C2266      C2274   1.387       .  A
C2267      C2275   1.386       .  A
C2267      C2278   1.412       .  A
C2268      C2276   1.386       .  A
C2268      C2279   1.413       .  A
C2269      C2270   1.379   1_554  A
C2269      H2281   1.082       .  S
C2270      H2282   1.082       .  S
C2271      C2272   1.379   1_554  A
C2271      H2283   1.083       .  S
C2272      H2284   1.082       .  S
C2273      H2285   1.082       .  S
C2274      H2286   1.082       .  S
C2275      H2287   1.082       .  S
C2276      H2288   1.082       .  S
C2277      C2896   1.495       .  S
C2278      C2927   1.486       .  S
C2279      C2910   1.497       .  S
C2280      C2882   1.485       .  S
C2291      C2292   1.547       .  S
C2291      C2297   1.536       .  S
C2291      C2295   1.533       .  S
C2291      C2854   1.549       .  S
C2292      H2299   1.081       .  S
C2293      C2294   1.553   1_545  S
C2293      C2826   1.500       .  S
C2294      C2298   1.539       .  S
C2294      C2296   1.549   1_565  S
C2294      H2300   1.109       .  S
C2295      H2301   1.084       .  S
C2298      C2868   1.490       .  S
C2303      C2307   1.541       .  S
C2303      C2773   1.559       .  S
C2304      H2311   1.086       .  S
C2304      C2305   1.374       .  D
C2305      C2306   1.542       .  S
C2305      C2784   1.498       .  S
C2306      C2310   1.544   1_455  S
C2306      H2312   1.109       .  S
C2307      H2313   1.081       .  S
C2307      C2308   1.367       .  D
C2308      C2798   1.497       .  S
C2309      H2314   1.087       .  S
C2309      C2310   1.367       .  D
C2310      C2812   1.494       .  S
N2315      C2320   1.354   1_554  A
N2315      C2319   1.351       .  A
N2315      H2347   1.039       .  S
N2316      C2324   1.347       .  A
N2317      C2322   1.354       .  A
N2317      C2321   1.354   1_556  A
N2317      H2348   1.038   1_556  S
N2318      C2326   1.349       .  A
C2319      C2327   1.387       .  A
C2319      C2335   1.413       .  A
C2320      C2336   1.414       .  A
C2320      C2328   1.386       .  A
C2321      C2329   1.387       .  A
C2321      C2338   1.416       .  A
C2322      C2337   1.419       .  A
C2322      C2330   1.387       .  A
C2323      C2335   1.404   1_545  A
C2323      C2331   1.386       .  A
C2324      C2338   1.410       .  A
C2324      C2332   1.389       .  A
C2325      C2333   1.386       .  A
C2325      C2336   1.413       .  A
C2326      C2334   1.385       .  A
C2326      C2337   1.409       .  A
C2327      C2328   1.376   1_554  A
C2327      H2339   1.082       .  S
C2328      H2340   1.082       .  S
C2329      C2330   1.374   1_554  A
C2329      H2341   1.082       .  S
C2330      H2342   1.082       .  S
C2331      H2343   1.082       .  S
C2332      H2344   1.082       .  S
C2333      H2345   1.082       .  S
C2334      H2346   1.082       .  S
C2335      C2728   1.476       .  S
C2336      C2756   1.489       .  S
C2337      C2742   1.491       .  S
C2338      C2714   1.479       .  S
O2349      C2357   1.264       .  A
O2349     Co2369   2.007       .  S
O2350      C2358   1.280       .  A
O2350     Co2370   2.031       .  S
O2351      C2359   1.256       .  A
O2351     Co2371   1.954       .  S
O2352      C2360   1.271       .  A
O2352     Co2372   1.913       .  S
O2353      C2359   1.272       .  A
O2353     Co2370   2.037       .  S
O2354      C2360   1.292       .  A
O2354     Co2369   2.094       .  S
O2355      C2358   1.271       .  A
O2355     Co2372   1.981       .  S
O2356      C2357   1.262       .  A
O2356     Co2371   1.986       .  S
C2357      C2759   1.485       .  S
C2358      C2801   1.504       .  S
C2359      C2871   1.477       .  S
C2360      C2913   1.494       .  S
O2361      C2374   1.263       .  A
O2361     Co2369   1.884       .  S
O2362      C2375   1.258       .  A
O2362     Co2370   1.951       .  S
O2363      C2376   1.276       .  A
O2363     Co2371   2.017       .  S
O2364      C2377   1.267       .  A
O2364     Co2372   2.032       .  S
O2365      C2377   1.251       .  A
O2365     Co2370   1.959       .  S
O2366      C2376   1.266       .  A
O2366     Co2369   1.965       .  S
O2367      C2374   1.298       .  A
O2367     Co2372   2.119       .  S
O2368      C2375   1.275       .  A
O2368     Co2371   2.048       .  S
Co2369     O2373   1.993       .  S
Co2370     O2373   2.026       .  S
Co2371     O2373   2.045       .  S
Co2372     O2373   2.037       .  S
C2374      C2745   1.483       .  S
C2375      C2815   1.483       .  S
C2376      C2924   1.488       .  S
C2377      C2857   1.495       .  S
O2378      C2386   1.261       .  A
O2378     Co2398   1.993       .  S
O2379      C2387   1.265       .  A
O2379     Co2399   1.959       .  S
O2380      C2388   1.291       .  A
O2380     Co2400   2.093       .  S
O2381      C2389   1.274       .  A
O2381     Co2401   2.018       .  S
O2382      C2388   1.263       .  A
O2382     Co2399   1.884       .  S
O2383      C2389   1.268       .  A
O2383     Co2398   1.979       .  S
O2384      C2387   1.279       .  A
O2384     Co2401   2.031       .  S
O2385      C2386   1.267       .  A
O2385     Co2400   2.018       .  S
C2386      C2980   1.494       .  S
C2387      C2885   1.488       .  S
C2388      C2731   1.457       .  S
C2389      C2689   1.489       .  S
O2390      C2403   1.275       .  A
O2390     Co2398   2.038       .  S
O2391      C2404   1.290       .  A
O2391     Co2399   2.091       .  S
O2392      C2405   1.266       .  A
O2392     Co2400   1.952       .  S
O2393      C2406   1.257       .  A
O2393     Co2401   1.978       .  S
O2394      C2406   1.260       .  A
O2394     Co2399   2.001       .  S
O2395      C2405   1.285       .  A
O2395     Co2398   2.047       .  S
O2396      C2403   1.259       .  A
O2396     Co2401   1.964       .  S
O2397      C2404   1.268       .  A
O2397     Co2400   1.916       .  S
Co2398     O2402   2.035       .  S
Co2399     O2402   2.001       .  S
Co2400     O2402   2.018       .  S
Co2401     O2402   2.030       .  S
C2403      C2969   1.489       .  S
C2404      C2899   1.492       .  S
C2405      C2700   1.490       .  S
C2406      C2717   1.463       .  S
O2408      C2416   1.293       .  A
O2408     Co2428   2.096   1_655  S
O2409      C2417   1.256       .  A
O2409     Co2429   1.976       .  S
O2410      C2418   1.270       .  A
O2410     Co2430   1.969       .  S
O2413      C2416   1.266       .  A
O2413     Co2430   1.903       .  S
O2414      C2415   1.257       .  A
O2414     Co2429   1.963       .  S
C2415      C2770   1.503       .  S
C2416      C2644   1.484       .  S
C2417      C2661   1.479       .  S
C2418      C2829   1.506       .  S
O2419     Co2427   1.984       .  S
O2421      C2434   1.275       .  A
O2421     Co2429   2.031       .  S
O2422      C2435   1.303   1_655  A
O2422     Co2430   2.128       .  S
O2424     Co2427   1.959       .  S
O2425      C2432   1.261       .  A
O2425     Co2430   2.012       .  S
O2426      C2433   1.278       .  A
O2426     Co2429   2.036       .  S
Co2428     O2431   1.994       .  S
Co2430     O2431   2.027   1_655  S
C2432      C2787   1.484       .  S
C2433      C2633   1.483       .  S
C2434      C2843   1.483       .  S
C2435      C2672   1.478       .  S
O2436     Co2456   1.976       .  S
O2438     Co2458   2.045       .  S
O2439      C2447   1.262       .  A
O2439     Co2459   2.004       .  S
O2440      C2446   1.265       .  A
O2441     Co2456   1.993       .  S
O2442      C2445   1.302   1_655  A
O2442     Co2459   2.122       .  S
O2443      C2444   1.276       .  A
O2443     Co2458   2.017       .  S
C2444      C2952   1.495       .  S
C2445      C2591   1.470       .  S
C2446      C2602   1.501       .  S
C2447      C2549   1.482       .  S
O2448      C2461   1.285       .  A
O2450      C2463   1.257       .  A
O2450     Co2458   1.961       .  S
O2451      C2464   1.264       .  A
O2451     Co2459   1.903       .  S
O2452      C2464   1.291       .  A
O2452     Co2457   2.105   1_655  S
O2453      C2463   1.272       .  A
O2454      C2461   1.269       .  A
O2454     Co2459   1.959       .  S
O2455      C2462   1.256       .  A
O2455     Co2458   1.975       .  S
Co2456     O2460   2.047       .  S
C2461      C2938   1.494       .  S
C2462      C2574   1.484       .  S
C2463      C2563   1.489       .  S
C2464      C2619   1.487       .  S
N2465      C2470   1.347       .  A
N2465      C2469   1.348       .  A
N2465      H2497   1.039       .  S
N2466      C2473   1.351       .  A
N2466      C2474   1.348   1_655  A
N2467      C2472   1.353       .  A
N2467      C2471   1.353       .  A
N2467      H2498   1.040   1_655  S
N2468      C2475   1.349       .  A
N2468      C2476   1.349       .  A
C2469      C2477   1.387       .  A
C2469      C2485   1.407       .  A
C2470      C2486   1.408       .  A
C2470      C2478   1.388       .  A
C2471      C2479   1.389       .  A
C2471      C2488   1.419       .  A
C2472      C2487   1.414       .  A
C2472      C2480   1.386       .  A
C2473      C2485   1.412       .  A
C2473      C2481   1.386   1_655  A
C2474      C2488   1.411   1_455  A
C2474      C2482   1.386       .  A
C2475      C2483   1.388       .  A
C2475      C2486   1.411       .  A
C2476      C2484   1.384   1_655  A
C2476      C2487   1.406       .  A
C2477      C2478   1.376       .  A
C2477      H2489   1.083       .  S
C2478      H2490   1.083       .  S
C2479      C2480   1.378       .  A
C2479      H2491   1.082       .  S
C2480      H2492   1.083       .  S
C2481      C2482   1.374       .  A
C2481      H2493   1.082       .  S
C2482      H2494   1.082       .  S
C2483      C2484   1.375   1_655  A
C2483      H2495   1.082   1_655  S
C2484      H2496   1.082       .  S
C2485      C2658   1.484       .  S
C2486      C2577   1.479       .  S
C2487      C2588   1.483       .  S
C2488      C2675   1.490   1_655  S
N2499      C2504   1.358       .  A
N2499      C2503   1.356       .  A
N2499      H2531   1.038       .  S
N2500      C2507   1.349       .  A
N2500      C2508   1.352       .  A
N2501      C2506   1.351       .  A
N2501      C2505   1.352       .  A
N2501      H2532   1.039       .  S
N2502      C2509   1.352       .  A
N2502      C2510   1.352       .  A
C2503      C2511   1.387       .  A
C2503      C2519   1.424       .  A
C2504      C2520   1.425       .  A
C2504      C2512   1.387       .  A
C2505      C2513   1.386       .  A
C2505      C2522   1.411       .  A
C2506      C2521   1.412       .  A
C2506      C2514   1.387       .  A
C2507      C2519   1.414       .  A
C2507      C2515   1.390       .  A
C2508      C2522   1.409       .  A
C2508      C2516   1.385       .  A
C2509      C2517   1.387       .  A
C2509      C2520   1.414       .  A
C2510      C2518   1.386       .  A
C2510      C2521   1.413       .  A
C2511      C2512   1.384       .  A
C2511      H2523   1.082       .  S
C2512      H2524   1.082       .  S
C2513      C2514   1.378       .  A
C2513      H2525   1.083       .  S
C2514      H2526   1.082       .  S
C2515      C2516   1.369       .  A
C2515      H2527   1.082       .  S
C2516      H2528   1.083       .  S
C2517      C2518   1.369       .  A
C2517      H2529   1.082       .  S
C2518      H2530   1.082       .  S
C2519      C2630   1.491       .  S
C2520      C2605   1.498       .  S
C2521      C2616   1.485       .  S
C2522      C2647   1.484       .  S
C2533      C2534   1.547       .  S
C2533      C2560   1.553       .  S
C2534      H2541   1.080       .  S
C2534      C2535   1.365       .  D
C2535      C2686   1.493       .  S
C2536      C2540   1.539       .  S
C2536      C2538   1.540       .  S
C2536      H2542   1.110       .  S
C2537      H2543   1.084       .  S
C2537      C2538   1.373       .  D
C2538      C2546   1.497       .  S
C2539      H2544   1.086       .  S
C2539      C2540   1.360       .  D
C2540      C2703   1.481       .  S
C2545      C2546   1.406       .  A
C2545      C2550   1.402       .  A
C2545      H2552   1.084       .  S
C2547      C2548   1.409       .  A
C2547      N2554   1.432       .  S
C2548      H2553   1.084       .  S
C2549      C2550   1.414       .  A
C2550      N2551   1.433       .  S
N2551      H2555   1.045       .  S
N2551      H2556   1.045       .  S
N2554      H2557   1.046       .  S
N2554      H2558   1.046       .  S
C2559      C2560   1.419       .  A
C2559      C2564   1.411       .  A
C2559      H2566   1.073       .  S
C2561      C2562   1.402       .  A
C2561      N2568   1.435       .  S
C2562      H2567   1.084       .  S
C2563      C2564   1.409       .  A
C2564      N2565   1.439       .  S
N2565      H2569   1.045       .  S
N2565      H2570   1.045       .  S
N2568      H2571   1.042       .  S
N2568      H2572   1.041       .  S
C2573      C2578   1.396       .  A
C2573      H2580   1.084       .  S
C2574      C2575   1.416       .  A
C2575      C2576   1.395       .  A
C2575      N2582   1.432       .  S
C2576      H2581   1.084       .  S
C2577      C2578   1.409       .  A
C2578      N2579   1.433       .  S
N2579      H2583   1.043       .  S
N2579      H2584   1.046       .  S
N2582      H2585   1.044       .  S
N2582      H2586   1.045       .  S
C2587      C2592   1.404       .  A
C2587      H2594   1.084       .  S
C2588      C2589   1.407       .  A
C2589      C2590   1.403       .  A
C2589      N2596   1.432       .  S
C2590      C2591   1.402   1_655  A
C2590      H2595   1.084       .  S
C2592      N2593   1.433       .  S
N2593      H2597   1.046       .  S
N2593      H2598   1.046       .  S
N2596      H2599   1.045       .  S
N2596      H2600   1.046       .  S
C2601      C2602   1.410       .  A
C2601      C2606   1.403       .  A
C2601      H2608   1.083       .  S
C2603      N2610   1.437       .  S
C2604      C2605   1.404   1_545  A
C2605      C2606   1.412       .  A
C2606      N2607   1.432       .  S
N2607      H2611   1.045       .  S
N2607      H2612   1.045       .  S
N2610      H2613   1.046       .  S
N2610      H2614   1.046       .  S
C2615      C2616   1.400       .  A
C2615      C2620   1.403       .  A
C2615      H2622   1.084       .  S
C2616      C2617   1.411       .  A
C2617      C2618   1.400       .  A
C2617      N2624   1.433   1_565  S
C2618      C2619   1.409       .  A
C2618      H2623   1.084       .  S
C2619      C2620   1.414       .  A
C2620      N2621   1.432       .  S
N2621      H2625   1.046       .  S
N2621      H2626   1.045       .  S
N2624      H2627   1.045   1_545  S
N2624      H2628   1.045       .  S
C2629      C2630   1.406       .  A
C2630      C2631   1.408   1_565  A
C2631      C2632   1.406       .  A
C2631      N2638   1.438       .  S
C2632      H2637   1.084       .  S
C2633      C2634   1.414       .  A
C2634      N2635   1.438       .  S
N2635      H2640   1.045       .  S
N2638      H2641   1.046       .  S
C2643      C2644   1.408       .  A
C2643      C2648   1.402       .  A
C2643      H2650   1.084       .  S
C2644      C2645   1.414       .  A
C2645      C2646   1.400       .  A
C2645      N2652   1.432   1_565  S
C2646      C2647   1.398       .  A
C2647      C2648   1.410       .  A
C2648      N2649   1.432       .  S
N2649      H2653   1.045       .  S
N2649      H2654   1.046       .  S
C2657      C2658   1.401       .  A
C2657      C2662   1.402       .  A
C2657      H2664   1.084       .  S
C2659      C2660   1.396       .  A
C2659      N2666   1.433       .  S
C2660      C2661   1.403       .  A
C2660      H2665   1.084       .  S
C2662      N2663   1.432       .  S
N2663      H2667   1.046       .  S
N2663      H2668   1.046       .  S
N2666      H2669   1.045       .  S
N2666      H2670   1.044       .  S
C2671      C2672   1.403   1_655  A
C2671      C2676   1.405       .  A
C2671      H2678   1.084       .  S
C2673      C2674   1.403       .  A
C2673      N2680   1.433       .  S
C2674      H2679   1.084       .  S
C2675      C2676   1.411   1_455  A
C2676      N2677   1.432       .  S
N2677      H2681   1.046       .  S
N2677      H2682   1.045       .  S
N2680      H2683   1.046       .  S
N2680      H2684   1.045       .  S
C2685      C2686   1.404       .  A
C2685      C2690   1.407       .  A
C2685      H2692   1.084       .  S
C2686      C2687   1.416       .  A
C2687      C2688   1.403       .  A
C2687      N2694   1.429       .  S
C2688      C2689   1.404       .  A
C2688      H2693   1.084       .  S
C2689      C2690   1.412       .  A
C2690      N2691   1.432       .  S
N2691      H2695   1.045       .  S
N2691      H2696   1.045       .  S
N2694      H2697   1.044       .  S
N2694      H2698   1.044       .  S
C2699      C2700   1.404       .  A
C2699      C2704   1.407       .  A
C2699      H2706   1.083       .  S
C2700      C2701   1.419       .  A
C2701      C2702   1.405       .  A
C2701      N2708   1.433       .  S
C2702      C2703   1.397       .  A
C2702      H2707   1.084       .  S
C2703      C2704   1.413       .  A
C2704      N2705   1.438       .  S
N2705      H2709   1.046       .  S
N2705      H2710   1.045       .  S
N2708      H2711   1.046       .  S
N2708      H2712   1.046       .  S
C2713      C2714   1.402       .  A
C2713      C2718   1.400       .  A
C2713      H2720   1.084       .  S
C2714      C2715   1.412       .  A
C2715      C2716   1.396       .  A
C2715      N2722   1.433       .  S
C2716      C2717   1.403       .  A
C2716      H2721   1.085       .  S
C2717      C2718   1.404       .  A
C2718      N2719   1.432       .  S
N2719      H2723   1.046       .  S
N2719      H2724   1.045       .  S
N2722      H2725   1.044       .  S
N2722      H2726   1.046       .  S
C2727      C2728   1.404       .  A
C2727      C2732   1.403       .  A
C2727      H2734   1.084       .  S
C2728      C2729   1.408       .  A
C2729      C2730   1.389       .  A
C2729      N2736   1.433       .  S
C2730      C2731   1.399       .  A
C2730      H2735   1.082       .  S
C2731      C2732   1.412       .  A
C2732      N2733   1.437       .  S
N2733      H2737   1.046       .  S
N2733      H2738   1.044       .  S
N2736      H2739   1.046       .  S
N2736      H2740   1.045       .  S
C2741      C2742   1.405       .  A
C2741      C2746   1.406       .  A
C2741      H2748   1.084       .  S
C2742      C2743   1.415       .  A
C2743      C2744   1.399       .  A
C2743      N2750   1.439       .  S
C2744      C2745   1.405       .  A
C2744      H2749   1.082       .  S
C2745      C2746   1.410       .  A
C2746      N2747   1.432       .  S
N2747      H2751   1.046       .  S
N2747      H2752   1.046       .  S
N2750      H2753   1.044       .  S
N2750      H2754   1.046       .  S
C2755      C2756   1.400       .  A
C2755      C2760   1.402       .  A
C2755      H2762   1.084       .  S
C2756      C2757   1.413       .  A
C2757      C2758   1.402       .  A
C2757      N2764   1.432       .  S
C2758      C2759   1.407       .  A
C2758      H2763   1.084       .  S
C2759      C2760   1.414       .  A
C2760      N2761   1.432       .  S
N2761      H2765   1.045       .  S
N2761      H2766   1.045       .  S
N2764      H2767   1.046       .  S
N2764      H2768   1.044       .  S
C2769      C2774   1.408       .  A
C2769      H2776   1.084       .  S
C2770      C2771   1.417       .  A
C2771      C2772   1.411       .  A
C2771      N2778   1.432       .  S
C2772      C2773   1.418       .  A
C2772      H2777   1.076       .  S
C2774      N2775   1.432       .  S
N2775      H2779   1.046       .  S
N2775      H2780   1.045       .  S
N2778      H2781   1.044       .  S
N2778      H2782   1.045       .  S
C2783      C2788   1.406       .  A
C2783      H2790   1.084       .  S
C2784      C2785   1.414   1_455  A
C2785      C2786   1.406       .  A
C2785      N2792   1.431       .  S
C2786      C2787   1.401       .  A
C2786      H2791   1.084       .  S
C2788      N2789   1.433       .  S
N2789      H2793   1.044       .  S
N2789      H2794   1.046       .  S
N2792      H2795   1.046       .  S
N2792      H2796   1.046       .  S
C2797      C2798   1.403       .  A
C2797      C2802   1.405       .  A
C2797      H2804   1.084       .  S
C2798      C2799   1.413       .  A
C2799      C2800   1.410       .  A
C2799      N2806   1.430       .  S
C2800      C2801   1.412       .  A
C2800      H2805   1.083       .  S
C2801      C2802   1.417       .  A
C2802      N2803   1.432       .  S
N2803      H2807   1.045       .  S
N2803      H2808   1.046       .  S
N2806      H2809   1.046       .  S
N2806      H2810   1.044       .  S
C2811      C2812   1.406       .  A
C2811      C2816   1.410       .  A
C2811      H2818   1.081       .  S
C2812      C2813   1.412       .  A
C2813      C2814   1.399       .  A
C2813      N2820   1.433       .  S
C2814      C2815   1.402       .  A
C2814      H2819   1.085       .  S
C2815      C2816   1.414       .  A
C2816      N2817   1.430       .  S
N2817      H2821   1.044       .  S
N2817      H2822   1.045       .  S
N2820      H2823   1.045       .  S
N2820      H2824   1.046       .  S
C2825      C2826   1.409       .  A
C2825      C2830   1.407   1_545  A
C2825      H2832   1.084       .  S
C2827      C2828   1.404       .  A
C2827      N2834   1.432       .  S
C2828      H2833   1.083       .  S
C2829      C2830   1.420       .  A
C2830      N2831   1.432       .  S
N2831      H2835   1.046   1_565  S
N2831      H2836   1.045       .  S
N2834      H2837   1.045       .  S
N2834      H2838   1.044       .  S
C2839      H2846   1.083       .  S
C2840      C2841   1.408       .  A
C2841      C2842   1.401       .  A
C2841      N2848   1.432       .  S
C2842      C2843   1.404       .  A
C2842      H2847   1.084       .  S
C2843      C2844   1.409       .  A
C2853      C2854   1.409       .  A
C2853      C2858   1.397       .  A
C2853      H2860   1.075       .  S
C2854      C2855   1.432       .  A
C2855      C2856   1.409       .  A
C2855      N2862   1.435       .  S
C2856      C2857   1.402       .  A
C2856      H2861   1.083       .  S
C2857      C2858   1.415       .  A
C2858      N2859   1.435       .  S
N2859      H2863   1.046       .  S
N2859      H2864   1.046       .  S
N2862      H2865   1.043       .  S
N2862      H2866   1.040       .  S
C2867      C2868   1.409       .  A
C2867      C2872   1.408       .  A
C2867      H2874   1.083       .  S
C2868      C2869   1.411       .  A
C2869      C2870   1.400       .  A
C2869      N2876   1.438       .  S
C2870      C2871   1.402       .  A
C2870      H2875   1.084       .  S
C2871      C2872   1.410       .  A
C2872      N2873   1.431       .  S
N2873      H2877   1.046       .  S
N2873      H2878   1.045       .  S
N2876      H2879   1.046       .  S
N2876      H2880   1.046       .  S
C2881      C2882   1.398       .  A
C2881      C2886   1.403       .  A
C2881      H2888   1.084       .  S
C2882      C2883   1.404       .  A
C2883      C2884   1.402       .  A
C2883      N2890   1.432       .  S
C2884      C2885   1.408       .  A
C2884      H2889   1.083       .  S
C2885      C2886   1.418       .  A
C2886      N2887   1.432       .  S
N2887      H2891   1.045       .  S
N2887      H2892   1.046       .  S
N2890      H2893   1.045       .  S
N2890      H2894   1.046       .  S
C2895      C2896   1.405       .  A
C2895      C2900   1.406       .  A
C2895      H2902   1.084       .  S
C2896      C2897   1.412       .  A
C2897      C2898   1.401       .  A
C2897      N2904   1.433       .  S
C2898      C2899   1.409       .  A
C2898      H2903   1.082       .  S
C2899      C2900   1.413       .  A
C2900      N2901   1.432       .  S
N2901      H2905   1.046       .  S
N2901      H2906   1.046       .  S
N2904      H2907   1.044       .  S
N2904      H2908   1.045       .  S
C2909      C2910   1.400       .  A
C2909      C2914   1.409       .  A
C2909      H2916   1.084       .  S
C2910      C2911   1.415       .  A
C2911      C2912   1.403       .  A
C2911      N2918   1.432       .  S
C2912      C2913   1.406       .  A
C2912      H2917   1.084       .  S
C2913      C2914   1.420       .  A
C2914      N2915   1.437       .  S
N2915      H2919   1.046       .  S
N2915      H2920   1.046       .  S
N2918      H2921   1.046       .  S
N2918      H2922   1.044       .  S
C2923      C2924   1.409       .  A
C2923      C2928   1.397       .  A
C2923      H2930   1.084       .  S
C2924      C2925   1.417       .  A
C2925      C2926   1.406       .  A
C2925      N2932   1.437       .  S
C2926      C2927   1.401       .  A
C2926      H2931   1.084       .  S
C2927      C2928   1.408       .  A
C2928      N2929   1.432       .  S
N2929      H2933   1.045       .  S
N2929      H2934   1.045       .  S
N2932      H2935   1.045       .  S
N2932      H2936   1.046       .  S
C2937      C2938   1.410       .  A
C2937      C2942   1.401       .  A
C2937      H2944   1.084       .  S
C2938      C2939   1.411       .  A
C2939      C2940   1.410   1_565  A
C2939      N2946   1.432       .  S
C2940      C2941   1.407       .  A
C2940      H2945   1.084       .  S
C2941      C2942   1.410   1_545  A
C2942      N2943   1.430   1_565  S
N2943      H2947   1.044   1_545  S
N2943      H2948   1.044       .  S
N2946      H2949   1.046   1_565  S
N2946      H2950   1.046       .  S
C2951      C2956   1.402       .  A
C2951      H2958   1.084       .  S
C2952      C2953   1.415       .  A
C2953      C2954   1.410       .  A
C2953      N2960   1.432       .  S
C2954      H2959   1.082       .  S
C2955      C2956   1.418       .  A
C2956      N2957   1.432       .  S
N2957      H2961   1.043       .  S
N2957      H2962   1.042       .  S
N2960      H2963   1.046       .  S
N2960      H2964   1.046       .  S
C2965      C2966   1.414       .  A
C2965      C2970   1.407       .  A
C2965      H2972   1.075       .  S
C2966      C2967   1.419       .  A
C2967      C2968   1.407       .  A
C2967      N2974   1.433       .  S
C2968      C2969   1.403       .  A
C2968      H2973   1.084       .  S
C2969      C2970   1.409       .  A
C2970      N2971   1.433       .  S
N2971      H2975   1.045       .  S
N2971      H2976   1.046       .  S
N2974      H2977   1.046       .  S
N2974      H2978   1.045       .  S
C2979      C2980   1.409       .  A
C2979      C2984   1.408       .  A
C2979      H2986   1.084       .  S
C2980      C2981   1.411       .  A
C2981      C2982   1.409       .  A
C2981      N2988   1.432       .  S
C2982      C2983   1.403       .  A
C2982      H2987   1.084       .  S
C2983      C2984   1.416       .  A
C2984      N2985   1.433       .  S
N2985      H2989   1.044       .  S
N2985      H2990   1.044       .  S
N2988      H2991   1.045       .  S
N2988      H2992   1.045       .  S
