geometry optimzed in LAMMPS
_audit_creation_date              2020-12-01 
_audit_creation_method            'lammps2cif' 
_symmetry_space_group_name_H-M    'P1' 
_symmetry_Int_Tables_number       1 
_symmetry_cell_setting            triclinic 
loop_ 
_symmetry_equiv_pos_as_xyz 
  x,y,z 
_cell_length_a                    39.44688762 
_cell_length_b                    38.88243083016214 
_cell_length_c                    32.04635309568367 
_cell_angle_alpha                 89.1769283849164 
_cell_angle_beta                  90.14924934557374 
_cell_angle_gamma                 118.46557015881852 
loop_ 
_atom_site_label 
_atom_site_type_symbol 
_atom_site_fract_x 
_atom_site_fract_y 
_atom_site_fract_z 
_atom_site_charge 
Fe1        Fe  0.38766988  0.19519317  0.25251917     1.65800
Fe2        Fe  0.30385386  0.11042462  0.24363722     1.73200
Fe3        Fe  0.30261861  0.19644977  0.25089061     1.54400
O4          O  0.33997648  0.23780660  0.29239132    -0.81400
O5          O  0.27465676  0.11343317  0.19122636    -0.79700
O6          O  0.38697905  0.22350397  0.30626795    -0.83900
O7          O  0.39240929  0.24176556  0.21536087    -0.78800
O8          O  0.27073351  0.16379978  0.30101194    -0.80600
O9          O  0.34540475  0.10893143  0.20522016    -0.83300
C10         C  0.36887924  0.24936577  0.19512332     0.97500
C11         C  0.36897107  0.24239541  0.31379500     1.04900
O12         O  0.33147835  0.16730331  0.24894890    -1.12300
O13         O  0.33053943  0.10221990  0.29534533    -0.74700
O14         O  0.38981516  0.15215250  0.28978852    -0.78200
O15         O  0.33267007  0.23073282  0.20061246    -0.78900
C16         C  0.36582486  0.11917915  0.30557259     0.96400
O17         O  0.39418657  0.16933660  0.19956250    -0.76900
O18         O  0.25871902  0.10410078  0.28199847    -0.82000
C19         C  0.25486148  0.13116335  0.18734577     0.99000
C20         C  0.25167636  0.12682322  0.30424366     1.04900
O21         O  0.26027089  0.15971821  0.21023019    -0.77700
C22         C  0.37748061  0.13358741  0.18929675     1.03200
C23         C  0.00299411  0.50175328  0.02511795    -0.02200
C24         C  0.00450926  0.99742559  0.47115337    -0.02200
C25         C  0.49139792  0.03224200  0.04653397    -0.11700
C26         C  0.49084302  0.06657450  0.02943661     0.03800
C27         C  0.47335056  0.08483009  0.05168899    -0.12300
C28         C  0.46183259  0.07468991  0.09300324     0.18600
C29         C  0.47098572  0.04839270  0.11352696    -0.09300
C30         C  0.48603132  0.02840639  0.09084027    -0.02300
H31         H  0.46979120  0.10823564  0.03709875     0.05100
C32         C  0.44028919  0.09163512  0.11434069     0.20600
H33         H  0.49142784  0.50839837  0.10767580     0.10300
C34         C  0.40016022  0.06944133  0.11768767    -0.15600
C35         C  0.37866583  0.08300367  0.14018969     0.03300
C36         C  0.39758328  0.11980020  0.16000508    -0.11000
C37         C  0.43786025  0.14255658  0.15488659    -0.01000
C38         C  0.45914532  0.12868096  0.13248106    -0.06100
H39         H  0.38554177  0.04100436  0.10324870     0.06300
H40         H  0.45327582  0.17066462  0.16980622     0.09700
Br41       Br  0.46114657  0.03687249  0.17205757    -0.05800
Br42       Br  0.01685477  0.09713522  0.98116208    -0.02800
Br43       Br  0.32384364  0.04934653  0.14198358     0.00100
Br44       Br  0.51413152  0.16014891  0.12927768    -0.04300
C45         C  0.22222819  0.11654487  0.15769957    -0.11700
C46         C  0.22293019  0.10023656  0.11880532     0.03800
C47         C  0.18947350  0.08308990  0.09437346    -0.12300
C48         C  0.15527777  0.08206733  0.10812486     0.18600
C49         C  0.15500846  0.09973701  0.14598228    -0.09300
C50         C  0.18828023  0.11693428  0.17023065    -0.02300
H51         H  0.18991779  0.06993246  0.06494618     0.05100
C52         C  0.11918571  0.06018024  0.08455945     0.20600
H53         H  0.18707264  0.12929926  0.19992598     0.10300
C54         C  0.09321232  0.02250394  0.09793594    -0.15600
C55         C  0.05549596  0.00267252  0.08233529     0.03300
C56         C  0.04407569  0.01848590  0.04694224    -0.11000
C57         C  0.07151048  0.05770527  0.03580504    -0.01000
C58         C  0.10772696  0.07823231  0.05402440    -0.06100
H59         H  0.10147530  0.00995109  0.12393122     0.06300
H60         H  0.06451103  0.07356096  0.01294318     0.09700
Br61       Br  0.10928562  0.09971968  0.16648065    -0.05800
Br62       Br  0.26887220  0.10182560  0.09690180    -0.02800
Br63       Br  0.02510128  0.46263528  0.12115026     0.00100
Br64       Br  0.13911751  0.13221386  0.03880146    -0.04300
C65         C  0.47417958  0.45943570  0.04442347    -0.11700
C66         C  0.43682254  0.44682801  0.06410805     0.03800
C67         C  0.41793499  0.41056897  0.08503058    -0.12300
C68         C  0.43243873  0.38424493  0.08518561     0.18600
C69         C  0.46477964  0.39278506  0.06065511    -0.09300
C70         C  0.48493082  0.42952147  0.04128422    -0.02300
H71         H  0.39133897  0.40262058  0.10185949     0.05100
C72         C  0.41484412  0.34939780  0.11315632     0.20600
H73         H  0.01018047  0.43485212  0.02468831     0.10300
C74         C  0.39592980  0.31168593  0.09633741    -0.15600
C75         C  0.38046060  0.27847344  0.12255690     0.03300
C76         C  0.38447207  0.28292284  0.16608495    -0.11000
C77         C  0.40271173  0.32044159  0.18285014    -0.01000
C78         C  0.41728771  0.35355746  0.15692058    -0.06100
H79         H  0.39331315  0.30814216  0.06281363     0.06300
H80         H  0.40512718  0.32397337  0.21640488     0.09700
Br81       Br  0.48533303  0.35710578  0.05604241    -0.05800
Br82       Br  0.40449463  0.47169559  0.06423020    -0.02800
Br83       Br  0.35499895  0.22773408  0.09788007     0.00100
Br84       Br  0.44020436  0.40357495  0.18334108    -0.04300
C85         C  0.47744325  0.01046862  0.44541039    -0.11700
C86         C  0.47748964  0.01446633  0.40047504     0.03800
C87         C  0.45655958  0.03083888  0.38103967    -0.12300
C88         C  0.43249810  0.04062704  0.40384711     0.18600
C89         C  0.42592642  0.02952947  0.44589708    -0.09400
C90         C  0.44660500  0.01274770  0.46493199    -0.02300
H91         H  0.45941041  0.03650674  0.34765391     0.05100
C92         C  0.41450988  0.06190922  0.38273838     0.20600
H93         H  0.43888415  0.00245903  0.49580587     0.10300
C94         C  0.37475439  0.04295028  0.37530219    -0.15600
C95         C  0.35752651  0.06133881  0.35221675     0.03300
C96         C  0.38062123  0.09959115  0.33537108    -0.11000
C97         C  0.42029486  0.11886934  0.34475291    -0.01000
C98         C  0.43717779  0.10046082  0.36799136    -0.06100
H99         H  0.35712789  0.01330280  0.38684759     0.06300
H100        H  0.43881162  0.14827321  0.33312441     0.09700
Br101      Br  0.39148271  0.03955484  0.47950215    -0.05800
Br102      Br  0.00542991  0.00103759  0.36096930    -0.02800
Br103      Br  0.30264519  0.03154264  0.34509596     0.00100
Br104      Br  0.49155580  0.12924752  0.37851596    -0.04300
C105        C  0.21963684  0.10973435  0.33451197    -0.11700
C106        C  0.18366289  0.07791530  0.32408275     0.03800
C107        C  0.15328051  0.06420310  0.35274156    -0.12300
C108        C  0.15798004  0.08158268  0.39181854     0.18600
C109        C  0.19395784  0.11275394  0.40265008    -0.09300
C110        C  0.22439105  0.12682575  0.37389205    -0.02300
H111        H  0.12546662  0.04033921  0.34418535     0.05100
C112        C  0.12397829  0.06715831  0.41938695     0.20600
H113        H  0.25187436  0.15126354  0.38227605     0.10300
C114        C  0.11668470  0.03720587  0.44792756    -0.15600
C115        C  0.07999638  0.01484476  0.46598146     0.03300
C116        C  0.04830151  0.02242443  0.45540854    -0.11000
C117        C  0.05938698  0.05680946  0.43039785    -0.01000
C118        C  0.09560515  0.07800054  0.41200643    -0.06100
H119        H  0.13912344  0.02918788  0.45372758     0.06300
H120        H  0.03978370  0.06739712  0.42208385     0.09700
Br121      Br  0.20268936  0.13736211  0.45572979    -0.05800
Br122      Br  0.17305846  0.05405731  0.27016962    -0.02800
Br123      Br  0.07917204  0.47271166  0.49872532     0.00100
Br124      Br  0.10419326  0.12035708  0.37442875    -0.04300
C125        C  0.38339211  0.27275175  0.34665900    -0.11700
C126        C  0.40584822  0.27218081  0.38096788     0.03800
C127        C  0.42264978  0.30436865  0.40764651    -0.12300
C128        C  0.41718393  0.33717778  0.40119835     0.18600
C129        C  0.39353986  0.33703063  0.36809130    -0.09300
C130        C  0.37666336  0.30498015  0.34164722    -0.02300
H131        H  0.44087165  0.30424762  0.43294397     0.05100
C132        C  0.44049502  0.37347733  0.42488439     0.20600
H133        H  0.35982708  0.30635456  0.31553931     0.10300
C134        C  0.47971005  0.39482893  0.41615952    -0.15600
C135        C  0.50236391  0.43357756  0.42931181     0.03300
C136        C  0.48577697  0.45224481  0.45536398    -0.11000
C137        C  0.44540728  0.42839228  0.46365536    -0.01000
C138        C  0.42367289  0.38999182  0.45027509    -0.06100
H139        H  0.49212076  0.38184488  0.39555377     0.06300
H140        H  0.42961265  0.43978117  0.48076862     0.09700
Br141      Br  0.38657540  0.38158877  0.35467619    -0.05800
Br142      Br  0.41428144  0.22840638  0.39363854    -0.02800
Br143      Br  0.05102608  0.45494274  0.39959879     0.00100
Br144      Br  0.37055269  0.36137475  0.46705812    -0.04300
Fe145      Fe  0.38766988  0.19519300  0.75251870     1.65800
Fe146      Fe  0.30385363  0.11042460  0.74363693     1.73200
Fe147      Fe  0.30261877  0.19644992  0.75089036     1.54400
O148        O  0.33997670  0.23780663  0.79239111    -0.81400
O149        O  0.27465666  0.11343332  0.69122608    -0.79700
O150        O  0.38697926  0.22350392  0.80626751    -0.83900
O151        O  0.39240952  0.24176550  0.71536038    -0.78800
O152        O  0.27073354  0.16379986  0.80101166    -0.80600
O153        O  0.34540439  0.10893118  0.70521987    -0.83300
C154        C  0.36887948  0.24936584  0.69512297     0.97500
C155        C  0.36897125  0.24239531  0.81379474     1.04900
O156        O  0.33147833  0.16730331  0.74894861    -1.12300
O157        O  0.33053913  0.10221981  0.79534501    -0.74700
O158        O  0.38981497  0.15215221  0.78978798    -0.78200
O159        O  0.33267033  0.23073301  0.70061227    -0.78900
C160        C  0.36582461  0.11917891  0.80557209     0.96400
O161        O  0.39418627  0.16933625  0.69956199    -0.76900
O162        O  0.25871881  0.10410081  0.78199814    -0.82000
C163        C  0.25486155  0.13116368  0.68734540     0.99000
C164        C  0.25167627  0.12682328  0.80424336     1.04900
O165        O  0.26027105  0.15971855  0.71022983    -0.77700
C166        C  0.37748021  0.13358704  0.68929632     1.03200
C167        C  0.00299437  0.50175342  0.52511790    -0.02200
C168        C  0.00450932  0.99742590  0.97115341    -0.02200
C169        C  0.49139780  0.03224160  0.54653380    -0.11700
C170        C  0.49084284  0.06657407  0.52943642     0.03800
C171        C  0.47335022  0.08482952  0.55168876    -0.12300
C172        C  0.46183219  0.07468930  0.59300301     0.18600
C173        C  0.47098538  0.04839214  0.61352675    -0.09300
C174        C  0.48603117  0.02840596  0.59084009    -0.02300
H175        H  0.46979078  0.10823501  0.53709847     0.05100
C176        C  0.44028872  0.09163448  0.61434047     0.20600
H177        H  0.49142815  0.50839835  0.60767581     0.10300
C178        C  0.40015984  0.06944030  0.61768829    -0.15600
C179        C  0.37866542  0.08300271  0.64019013     0.03300
C180        C  0.39758276  0.11979970  0.66000463    -0.11000
C181        C  0.43785962  0.14255642  0.65488535    -0.01000
C182        C  0.45914471  0.12868075  0.63247991    -0.06100
H183        H  0.38554146  0.04100295  0.60325008     0.06300
H184        H  0.45327514  0.17066478  0.66980436     0.09700
Br185      Br  0.46114635  0.03687206  0.67205738    -0.05800
Br186      Br  0.01685435  0.09713480  0.48116191    -0.02800
Br187      Br  0.32384337  0.04934492  0.64198521     0.00100
Br188      Br  0.51413082  0.16014915  0.62927560    -0.04300
C189        C  0.22222836  0.11654533  0.65769904    -0.11700
C190        C  0.22293005  0.10023612  0.61880527     0.03800
C191        C  0.18947332  0.08308932  0.59437350    -0.12300
C192        C  0.15527789  0.08206768  0.60812440     0.18600
C193        C  0.15500893  0.09973839  0.64598121    -0.09300
C194        C  0.18828069  0.11693563  0.67022963    -0.02300
H195        H  0.18991733  0.06993103  0.56494674     0.05100
C196        C  0.11918576  0.06018044  0.58455915     0.20600
H197        H  0.18707326  0.12930120  0.69992456     0.10300
C198        C  0.09321248  0.02250411  0.59793574    -0.15600
C199        C  0.05549607  0.00267257  0.58233518     0.03300
C200        C  0.04407567  0.01848581  0.54694215    -0.11000
C201        C  0.07151035  0.05770520  0.53580487    -0.01000
C202        C  0.10772684  0.07823237  0.55402411    -0.06100
H203        H  0.10147556  0.00995133  0.62393098     0.06300
H204        H  0.06451078  0.07356082  0.51294299     0.09700
Br205      Br  0.10928645  0.09972222  0.66647890    -0.05800
Br206      Br  0.26887158  0.10182375  0.59690224    -0.02800
Br207      Br  0.02510155  0.46263485  0.62114976     0.00100
Br208      Br  0.13911705  0.13221401  0.53880125    -0.04300
C209        C  0.47417960  0.45943579  0.54442321    -0.11700
C210        C  0.43682254  0.44682812  0.56410778     0.03800
C211        C  0.41793488  0.41056898  0.58503013    -0.12300
C212        C  0.43243857  0.38424489  0.58518508     0.18600
C213        C  0.46477945  0.39278499  0.56065453    -0.09300
C214        C  0.48493068  0.42952146  0.54128376    -0.02300
H215        H  0.39133884  0.40262056  0.60185901     0.05100
C216        C  0.41484403  0.34939781  0.61315585     0.20600
H217        H  0.01018039  0.43485209  0.52468769     0.10300
C218        C  0.39592974  0.31168592  0.59633703    -0.15600
C219        C  0.38046070  0.27847348  0.62255654     0.03300
C220        C  0.38447225  0.28292290  0.66608459    -0.11000
C221        C  0.40271181  0.32044169  0.68284973    -0.01000
C222        C  0.41728770  0.35355753  0.65692012    -0.06100
H223        H  0.39331304  0.30814206  0.56281322     0.06300
H224        H  0.40512728  0.32397351  0.71640446     0.09700
Br225      Br  0.48533258  0.35710549  0.55604156    -0.05800
Br226      Br  0.40449473  0.47169581  0.56422995    -0.02800
Br227      Br  0.35499944  0.22773417  0.59787958     0.00100
Br228      Br  0.44020438  0.40357510  0.68334053    -0.04300
C229        C  0.47744344  0.01046912  0.94541045    -0.11700
C230        C  0.47748999  0.01446690  0.90047508     0.03800
C231        C  0.45655994  0.03083944  0.88103963    -0.12300
C232        C  0.43249831  0.04062745  0.90384699     0.18600
C233        C  0.42592657  0.02952992  0.94589697    -0.09400
C234        C  0.44660517  0.01274823  0.96493200    -0.02300
H235        H  0.45941077  0.03650724  0.84765385     0.05100
C236        C  0.41450983  0.06190933  0.88273814     0.20600
H237        H  0.43888425  0.00245954  0.99580587     0.10300
C238        C  0.37475460  0.04294958  0.87530044    -0.15600
C239        C  0.35752661  0.06133782  0.85221471     0.03300
C240        C  0.38062094  0.09959085  0.83537056    -0.11000
C241        C  0.42029427  0.11886980  0.84475389    -0.01000
C242        C  0.43717733  0.10046145  0.86799244    -0.06100
H243        H  0.35712844  0.01330166  0.88684484     0.06300
H244        H  0.43881069  0.14827419  0.83312654     0.09700
Br245      Br  0.39148255  0.03955503  0.97950185    -0.05800
Br246      Br  0.00543012  0.00103804  0.86096938    -0.02800
Br247      Br  0.30264576  0.03154021  0.84509110     0.00100
Br248      Br  0.49155493  0.12924908  0.87851914    -0.04300
C249        C  0.21963679  0.10973444  0.83451171    -0.11700
C250        C  0.18366275  0.07791556  0.82408237     0.03800
C251        C  0.15328043  0.06420332  0.85274129    -0.12300
C252        C  0.15798016  0.08158256  0.89181850     0.18600
C253        C  0.19395809  0.11275356  0.90265016    -0.09300
C254        C  0.22439118  0.12682555  0.87389196    -0.02300
H255        H  0.12546640  0.04033969  0.84418498     0.05100
C256        C  0.12397844  0.06715827  0.91938697     0.20600
H257        H  0.25187458  0.15126322  0.88227600     0.10300
C258        C  0.11668468  0.03720569  0.94792746    -0.15600
C259        C  0.07999636  0.01484472  0.96598143     0.03300
C260        C  0.04830160  0.02242458  0.95540858    -0.11000
C261        C  0.05938723  0.05680970  0.93039795    -0.01000
C262        C  0.09560541  0.07800071  0.91200656    -0.06100
H263        H  0.13912332  0.02918754  0.95372742     0.06300
H264        H  0.03978405  0.06739751  0.92208400     0.09700
Br265      Br  0.20268990  0.13736115  0.95573023    -0.05800
Br266      Br  0.17305824  0.05405810  0.77016892    -0.02800
Br267      Br  0.07917204  0.47271182  0.99872549     0.00100
Br268      Br  0.10419372  0.12035752  0.87442918    -0.04300
C269        C  0.38339225  0.27275149  0.84665892    -0.11700
C270        C  0.40584826  0.27218038  0.88096780     0.03800
C271        C  0.42264976  0.30436806  0.90764664    -0.12300
C272        C  0.41718393  0.33717722  0.90119871     0.18600
C273        C  0.39354011  0.33703033  0.86809152    -0.09300
C274        C  0.37666363  0.30497998  0.84164722    -0.02300
H275        H  0.44087156  0.30424689  0.93294409     0.05100
C276        C  0.44049497  0.37347662  0.92488504     0.20600
H277        H  0.35982755  0.30635458  0.81553929     0.10300
C278        C  0.47971002  0.39482826  0.91616022    -0.15600
C279        C  0.50236376  0.43357700  0.92931226     0.03300
C280        C  0.48577673  0.45224423  0.95536434    -0.11000
C281        C  0.44540709  0.42839159  0.96365586    -0.01000
C282        C  0.42367279  0.38999109  0.95027570    -0.06100
H283        H  0.49212076  0.38184420  0.89555458     0.06300
H284        H  0.42961241  0.43978052  0.98076899     0.09700
Br285      Br  0.38657604  0.38158870  0.85467656    -0.05800
Br286      Br  0.41428146  0.22840594  0.89363830    -0.02800
Br287      Br  0.05102576  0.45494226  0.89959921     0.00100
Br288      Br  0.37055255  0.36137404  0.96705854    -0.04300
Fe289      Fe  0.38814949  0.69519665  0.25225175     1.65800
Fe290      Fe  0.30435266  0.61026122  0.24268515     1.73200
Fe291      Fe  0.30289962  0.69617132  0.25084177     1.54400
O292        O  0.34003901  0.73732728  0.29258713    -0.81400
O293        O  0.27500841  0.61356460  0.19050475    -0.79700
O294        O  0.38757833  0.72373104  0.30593446    -0.83900
O295        O  0.39278308  0.74160897  0.21488820    -0.78800
O296        O  0.27094354  0.66308867  0.30071388    -0.80600
O297        O  0.34578049  0.60911836  0.20382204    -0.83300
C298        C  0.36915397  0.74930331  0.19498092     0.97500
C299        C  0.36934597  0.74236229  0.31364488     1.04900
O300        O  0.33191350  0.66715382  0.24856959    -1.12300
O301        O  0.33123482  0.60161418  0.29402380    -0.74700
O302        O  0.39024900  0.65224145  0.28970657    -0.78200
O303        O  0.33299000  0.73086141  0.20085156    -0.78900
C304        C  0.36637318  0.61892589  0.30488025     0.96400
O305        O  0.39491328  0.66939361  0.19936072    -0.76900
O306        O  0.25921805  0.60354391  0.28132840    -0.82000
C307        C  0.25534063  0.63143463  0.18669649     0.99000
C308        C  0.25200921  0.62609110  0.30368544     1.04900
O309        O  0.26070110  0.65979711  0.20985542    -0.77700
C310        C  0.37801754  0.63386045  0.18832740     1.03200
C311        C  0.00252140  0.00157028  0.02543799    -0.02200
C312        C  0.00447241  0.49680426  0.47091014    -0.02200
C313        C  0.49201549  0.53272494  0.04569990    -0.11700
C314        C  0.49145297  0.56687616  0.02805328     0.03800
C315        C  0.47401301  0.58540678  0.04993187    -0.12300
C316        C  0.46248730  0.57566048  0.09130414     0.18600
C317        C  0.47174961  0.54964996  0.11229077    -0.09300
C318        C  0.48683727  0.52947150  0.09002313    -0.02300
H319        H  0.47041300  0.60863724  0.03496095     0.05100
C320        C  0.44083681  0.59268028  0.11228998     0.20600
H321        H  0.49054715  0.00709965  0.10813575     0.10300
C322        C  0.40070236  0.57045294  0.11556213    -0.15600
C323        C  0.37917839  0.58381938  0.13832563     0.03300
C324        C  0.39808291  0.62041407  0.15855748    -0.11000
C325        C  0.43833875  0.64329268  0.15333650    -0.01000
C326        C  0.45963941  0.62964185  0.13060917    -0.06100
H327        H  0.38611593  0.54209075  0.10096054     0.06300
H328        H  0.45374587  0.67130389  0.16844702     0.09700
Br329      Br  0.46182532  0.53861880  0.17088511    -0.05800
Br330      Br  0.01712835  0.59664751  0.97922274    -0.02800
Br331      Br  0.32435843  0.55013416  0.13996232     0.00100
Br332      Br  0.51459319  0.66127857  0.12723354    -0.04300
C333        C  0.22292482  0.61723208  0.15674568    -0.11700
C334        C  0.22370072  0.60095777  0.11784502     0.03800
C335        C  0.19035085  0.58402471  0.09321861    -0.12300
C336        C  0.15619249  0.58321004  0.10676070     0.18600
C337        C  0.15590356  0.60097058  0.14454803    -0.09300
C338        C  0.18907250  0.61797091  0.16897575    -0.02300
H339        H  0.19082045  0.57078767  0.06385415     0.05100
C340        C  0.12004538  0.56107944  0.08333670     0.20600
H341        H  0.18781002  0.63037293  0.19862514     0.10300
C342        C  0.09410211  0.52359170  0.09726035    -0.15600
C343        C  0.05628355  0.50363172  0.08199471     0.03300
C344        C  0.04469371  0.51897390  0.04632613    -0.11000
C345        C  0.07211824  0.55801726  0.03455400    -0.01000
C346        C  0.10845158  0.57875942  0.05250187    -0.06100
H347        H  0.10247700  0.51136163  0.12346101     0.06300
H348        H  0.06503398  0.57355844  0.01138214     0.09700
Br349      Br  0.11021256  0.60116661  0.16481398    -0.05800
Br350      Br  0.26959621  0.60227117  0.09619987    -0.02800
Br351      Br  0.02413458  0.96101809  0.12073023     0.00100
Br352      Br  0.13979201  0.63254621  0.03650455    -0.04300
C353        C  0.47347227  0.95902830  0.04405519    -0.11700
C354        C  0.43601760  0.94631224  0.06354437     0.03800
C355        C  0.41702425  0.90993091  0.08419595    -0.12300
C356        C  0.43155206  0.88362652  0.08428154     0.18600
C357        C  0.46383663  0.89219538  0.05961497    -0.09300
C358        C  0.48407737  0.92904806  0.04050069    -0.02300
H359        H  0.39039753  0.90192856  0.10098527     0.05100
C360        C  0.41416827  0.84889454  0.11244853     0.20600
H361        H  0.00931093  0.93442212  0.02385567     0.10300
C362        C  0.39584286  0.81107040  0.09585722    -0.15600
C363        C  0.38076680  0.77800400  0.12227397     0.03300
C364        C  0.38454792  0.78271559  0.16577978    -0.11000
C365        C  0.40210949  0.82031603  0.18233417    -0.01000
C366        C  0.41630709  0.85328137  0.15620511    -0.06100
H367        H  0.39338305  0.80732283  0.06235410     0.06300
H368        H  0.40427664  0.82401945  0.21587320     0.09700
Br369      Br  0.48431871  0.85648722  0.05457783    -0.05800
Br370      Br  0.40377101  0.97127382  0.06383871    -0.02800
Br371      Br  0.35603264  0.72710067  0.09791605     0.00100
Br372      Br  0.43826444  0.90338945  0.18240134    -0.04300
C373        C  0.47698757  0.50926210  0.44507257    -0.11700
C374        C  0.47632097  0.51217779  0.40007795     0.03800
C375        C  0.45526705  0.52829856  0.38041582    -0.12300
C376        C  0.43193625  0.53911890  0.40317221     0.18600
C377        C  0.42585558  0.52886076  0.44548466    -0.09400
C378        C  0.44648545  0.51209387  0.46468955    -0.02300
H379        H  0.45763555  0.53317626  0.34690011     0.05100
C380        C  0.41447387  0.56084002  0.38181010     0.20600
H381        H  0.43906843  0.50237118  0.49576833     0.10300
C382        C  0.37445059  0.54326869  0.37645742    -0.15600
C383        C  0.35755034  0.56209440  0.35353598     0.03300
C384        C  0.38119104  0.59925573  0.33457009    -0.11000
C385        C  0.42124015  0.61719691  0.34171915    -0.01000
C386        C  0.43781901  0.59845697  0.36491590    -0.06100
H387        H  0.35628016  0.51438472  0.38963830     0.06300
H388        H  0.44024288  0.64574521  0.32834567     0.09700
Br389      Br  0.39239659  0.54018249  0.47927803    -0.05800
Br390      Br  0.00353620  0.49766644  0.36075064    -0.02800
Br391      Br  0.30223515  0.53471310  0.35010296     0.00100
Br392      Br  0.49272531  0.62559985  0.37249845    -0.04300
C393        C  0.21976397  0.60877400  0.33362728    -0.11700
C394        C  0.18331170  0.57846673  0.32200027     0.03800
C395        C  0.15261399  0.56487582  0.35024124    -0.12300
C396        C  0.15755130  0.58075039  0.39018222     0.18600
C397        C  0.19410858  0.61014062  0.40229814    -0.09300
C398        C  0.22479274  0.62430002  0.37384479    -0.02300
H399        H  0.12446079  0.54219131  0.34079052     0.05100
C400        C  0.12344076  0.56624353  0.41764254     0.20600
H401        H  0.25270026  0.64752274  0.38313233     0.10300
C402        C  0.11656538  0.53687316  0.44680996    -0.15600
C403        C  0.08003809  0.51458274  0.46523926     0.03300
C404        C  0.04807554  0.52170246  0.45453882    -0.11000
C405        C  0.05868100  0.55547521  0.42864254    -0.01000
C406        C  0.09475616  0.57659110  0.40990457    -0.06100
H407        H  0.13922422  0.52922847  0.45287513     0.06300
H408        H  0.03884542  0.56570268  0.42006026     0.09700
Br409      Br  0.20338429  0.63215784  0.45679223    -0.05800
Br410      Br  0.17276441  0.55656032  0.26713766    -0.02800
Br411      Br  0.07852660  0.97229886  0.49870816     0.00100
Br412      Br  0.10289159  0.61848643  0.37183993    -0.04300
C413        C  0.38384939  0.77300367  0.34623802    -0.11700
C414        C  0.40676423  0.77301104  0.38034936     0.03800
C415        C  0.42354519  0.80546294  0.40670012    -0.12300
C416        C  0.41763994  0.83799708  0.40010795     0.18600
C417        C  0.39359905  0.83729342  0.36716405    -0.09300
C418        C  0.37672976  0.80497339  0.34106970    -0.02300
H419        H  0.44206149  0.80574807  0.43187547     0.05100
C420        C  0.44074866  0.87451477  0.42359432     0.20600
H421        H  0.35956210  0.80593158  0.31508589     0.10300
C422        C  0.47996622  0.89608182  0.41494430    -0.15600
C423        C  0.50250129  0.93473861  0.42846186     0.03300
C424        C  0.48579833  0.95309996  0.45480153    -0.11000
C425        C  0.44537107  0.92917375  0.46270474    -0.01000
C426        C  0.42375677  0.89084224  0.44902348    -0.06100
H427        H  0.49251969  0.88330010  0.39425944     0.06300
H428        H  0.42947002  0.94035284  0.47994921     0.09700
Br429      Br  0.38600405  0.88141524  0.35347754    -0.05800
Br430      Br  0.41582429  0.72966807  0.39319515    -0.02800
Br431      Br  0.05131705  0.95645025  0.39903331     0.00100
Br432      Br  0.37063360  0.86195911  0.46573944    -0.04300
Fe433      Fe  0.38814969  0.69519701  0.75225228     1.65800
Fe434      Fe  0.30435299  0.61026131  0.74268573     1.73200
Fe435      Fe  0.30289954  0.69617124  0.75084203     1.54400
O436        O  0.34003864  0.73732734  0.79258752    -0.81400
O437        O  0.27500858  0.61356431  0.69050524    -0.79700
O438        O  0.38757837  0.72373168  0.80593475    -0.83900
O439        O  0.39278312  0.74160897  0.71488831    -0.78800
O440        O  0.27094327  0.66308855  0.80071404    -0.80600
O441        O  0.34578089  0.60911855  0.70382268    -0.83300
C442        C  0.36915394  0.74930320  0.69498106     0.97500
C443        C  0.36934570  0.74236260  0.81364525     1.04900
O444        O  0.33191366  0.66715395  0.74857006    -1.12300
O445        O  0.33123528  0.60161451  0.79402445    -0.74700
O446        O  0.39024928  0.65224216  0.78970755    -0.78200
O447        O  0.33298999  0.73086133  0.70085184    -0.78900
C448        C  0.36637358  0.61892655  0.80488117     0.96400
O449        O  0.39491375  0.66939376  0.69936150    -0.76900
O450        O  0.25921827  0.60354385  0.78132888    -0.82000
C451        C  0.25534079  0.63143434  0.68669679     0.99000
C452        C  0.25200913  0.62609097  0.80368568     1.04900
O453        O  0.26070123  0.65979688  0.70985558    -0.77700
C454        C  0.37801799  0.63386062  0.68832814     1.03200
C455        C  0.00252135  0.00157002  0.52543793    -0.02200
C456        C  0.00447191  0.49680376  0.97091025    -0.02200
C457        C  0.49201557  0.53272497  0.54570000    -0.11700
C458        C  0.49145279  0.56687607  0.52805349     0.03800
C459        C  0.47401270  0.58540651  0.54993218    -0.12300
C460        C  0.46248727  0.57566025  0.59130453     0.18600
C461        C  0.47174980  0.54964982  0.61229104    -0.09300
C462        C  0.48683744  0.52947145  0.59002324    -0.02300
H463        H  0.47041254  0.60863690  0.53496133     0.05100
C464        C  0.44083702  0.59268015  0.61229065     0.20600
H465        H  0.49054709  0.00709928  0.60813557     0.10300
C466        C  0.40070251  0.57045316  0.61556243    -0.15600
C467        C  0.37917869  0.58381972  0.63832598     0.03300
C468        C  0.39808337  0.62041416  0.65855831    -0.11000
C469        C  0.43833934  0.64329236  0.65333790    -0.01000
C470        C  0.45963988  0.62964141  0.63061050    -0.06100
H471        H  0.38611589  0.54209116  0.60096048     0.06300
H472        H  0.45374658  0.67130331  0.66844885     0.09700
Br473      Br  0.46182598  0.53861872  0.67088545    -0.05800
Br474      Br  0.01712851  0.59664786  0.47922332    -0.02800
Br475      Br  0.32435866  0.55013491  0.63996214     0.00100
Br476      Br  0.51459383  0.66127750  0.62723553    -0.04300
C477        C  0.22292500  0.61723174  0.65674594    -0.11700
C478        C  0.22370102  0.60095763  0.61784518     0.03800
C479        C  0.19035117  0.58402462  0.59321872    -0.12300
C480        C  0.15619275  0.58320982  0.60676083     0.18600
C481        C  0.15590374  0.60097020  0.64454825    -0.09300
C482        C  0.18907264  0.61797046  0.66897603    -0.02300
H483        H  0.19082081  0.57078768  0.56385419     0.05100
C484        C  0.12004567  0.56107924  0.58333675     0.20600
H485        H  0.18781008  0.63037235  0.69862548     0.10300
C486        C  0.09410242  0.52359140  0.59726016    -0.15600
C487        C  0.05628384  0.50363150  0.58199450     0.03300
C488        C  0.04469394  0.51897391  0.54632615    -0.11000
C489        C  0.07211845  0.55801734  0.53455431    -0.01000
C490        C  0.10845182  0.57875935  0.55250213    -0.06100
H491        H  0.10247734  0.51136121  0.62346068     0.06300
H492        H  0.06503411  0.57355870  0.51138271     0.09700
Br493      Br  0.11021265  0.60116591  0.66481439    -0.05800
Br494      Br  0.26959667  0.60227134  0.59620000    -0.02800
Br495      Br  0.02413481  0.96101803  0.62073006     0.00100
Br496      Br  0.13979222  0.63254620  0.53650521    -0.04300
C497        C  0.47347228  0.95902794  0.54405509    -0.11700
C498        C  0.43601759  0.94631185  0.56354423     0.03800
C499        C  0.41702424  0.90993053  0.58419583    -0.12300
C500        C  0.43155208  0.88362618  0.58428147     0.18600
C501        C  0.46383672  0.89219507  0.55961502    -0.09300
C502        C  0.48407743  0.92904773  0.54050069    -0.02300
H503        H  0.39039753  0.90192819  0.60098512     0.05100
C504        C  0.41416827  0.84889422  0.61244847     0.20600
H505        H  0.00931112  0.93442192  0.52385580     0.10300
C506        C  0.39584274  0.81107008  0.59585720    -0.15600
C507        C  0.38076660  0.77800372  0.62227403     0.03300
C508        C  0.38454782  0.78271538  0.66577982    -0.11000
C509        C  0.40210961  0.82031584  0.68233416    -0.01000
C510        C  0.41630722  0.85328111  0.65620503    -0.06100
H511        H  0.39338287  0.80732248  0.56235412     0.06300
H512        H  0.40427692  0.82401932  0.71587315     0.09700
Br513      Br  0.48431875  0.85648685  0.55457793    -0.05800
Br514      Br  0.40377097  0.97127338  0.56383853    -0.02800
Br515      Br  0.35603220  0.72710034  0.59791620     0.00100
Br516      Br  0.43826477  0.90338916  0.68240118    -0.04300
C517        C  0.47698682  0.50926125  0.94507281    -0.11700
C518        C  0.47631966  0.51217641  0.90007819     0.03800
C519        C  0.45526595  0.52829746  0.88041622    -0.12300
C520        C  0.43193597  0.53911872  0.90317280     0.18600
C521        C  0.42585557  0.52886089  0.94548535    -0.09400
C522        C  0.44648509  0.51209350  0.96468999    -0.02300
H523        H  0.45763413  0.53317483  0.84690044     0.05100
C524        C  0.41447399  0.56084028  0.88181075     0.20600
H525        H  0.43906822  0.50237096  0.99576889     0.10300
C526        C  0.37445050  0.54327033  0.87646032    -0.15600
C527        C  0.35755048  0.56209646  0.85353923     0.03300
C528        C  0.38119154  0.59925654  0.83457106    -0.11000
C529        C  0.42124095  0.61719639  0.84171773    -0.01000
C530        C  0.43781960  0.59845620  0.86491438    -0.06100
H531        H  0.35627970  0.51438715  0.88964282     0.06300
H532        H  0.44024403  0.64574370  0.82834232     0.09700
Br533      Br  0.39239767  0.54018382  0.97927913    -0.05800
Br534      Br  0.00353451  0.49766456  0.86075076    -0.02800
Br535      Br  0.30223504  0.53471782  0.85011023     0.00100
Br536      Br  0.49272635  0.62559727  0.87249359    -0.04300
C537        C  0.21976375  0.60877373  0.83362731    -0.11700
C538        C  0.18331138  0.57846700  0.82199976     0.03800
C539        C  0.15261347  0.56487601  0.85024048    -0.12300
C540        C  0.15755066  0.58075001  0.89018174     0.18600
C541        C  0.19410808  0.61013962  0.90229821    -0.09300
C542        C  0.22479245  0.62429907  0.87384513    -0.02300
H543        H  0.12446022  0.54219185  0.84078937     0.05100
C544        C  0.12343997  0.56624303  0.91764191     0.20600
H545        H  0.25270008  0.64752133  0.88313310     0.10300
C546        C  0.11656489  0.53687309  0.94680979    -0.15600
C547        C  0.08003767  0.51458259  0.96523920     0.03300
C548        C  0.04807492  0.52170197  0.95453864    -0.11000
C549        C  0.05868006  0.55547433  0.92864182    -0.01000
C550        C  0.09475509  0.57659014  0.90990356    -0.06100
H551        H  0.13922389  0.52922869  0.95287518     0.06300
H552        H  0.03884433  0.56570159  0.92005945     0.09700
Br553      Br  0.20338366  0.63215599  0.95679269    -0.05800
Br554      Br  0.17276436  0.55656137  0.76713681    -0.02800
Br555      Br  0.07852650  0.97229880  0.99870821     0.00100
Br556      Br  0.10289005  0.61848485  0.87183820    -0.04300
C557        C  0.38384894  0.77300396  0.84623840    -0.11700
C558        C  0.40676371  0.77301135  0.88034984     0.03800
C559        C  0.42354464  0.80546330  0.90670052    -0.12300
C560        C  0.41763944  0.83799746  0.90010818     0.18600
C561        C  0.39359862  0.83729377  0.86716419    -0.09300
C562        C  0.37672934  0.80497368  0.84106993    -0.02300
H563        H  0.44206085  0.80574844  0.93187598     0.05100
C564        C  0.44074821  0.87451516  0.92359444     0.20600
H565        H  0.35956167  0.80593180  0.81508607     0.10300
C566        C  0.47996579  0.89608204  0.91494442    -0.15600
C567        C  0.50250103  0.93473877  0.92846203     0.03300
C568        C  0.48579820  0.95310028  0.95480165    -0.11000
C569        C  0.44537090  0.92917425  0.96270482    -0.01000
C570        C  0.42375642  0.89084277  0.94902355    -0.06100
H571        H  0.49251916  0.88330020  0.89425957     0.06300
H572        H  0.42946996  0.94035345  0.97994931     0.09700
Br573      Br  0.38600338  0.88141545  0.85347764    -0.05800
Br574      Br  0.41582358  0.72966829  0.89319586    -0.02800
Br575      Br  0.05131674  0.95645015  0.89903338     0.00100
Br576      Br  0.37063321  0.86195989  0.96573951    -0.04300
Fe577      Fe  0.88766995  0.19519329  0.25251907     1.65800
Fe578      Fe  0.80385383  0.11042471  0.24363719     1.73200
Fe579      Fe  0.80261868  0.19644991  0.25089045     1.54400
O580        O  0.83997654  0.23780675  0.29239120    -0.81400
O581        O  0.77465667  0.11343321  0.19122636    -0.79700
O582        O  0.88697919  0.22350421  0.30626776    -0.83900
O583        O  0.89240935  0.24176568  0.21536069    -0.78800
O584        O  0.77073348  0.16379992  0.30101174    -0.80600
O585        O  0.84540470  0.10893148  0.20522012    -0.83300
C586        C  0.86887926  0.24936582  0.19512309     0.97500
C587        C  0.86897111  0.24239554  0.31379488     1.04900
O588        O  0.83147839  0.16730343  0.24894885    -1.12300
O589        O  0.83053940  0.10221997  0.29534531    -0.74700
O590        O  0.88981514  0.15215259  0.28978848    -0.78200
O591        O  0.83267011  0.23073281  0.20061223    -0.78900
C592        C  0.86582484  0.11917923  0.30557255     0.96400
O593        O  0.89418661  0.16933661  0.19956248    -0.76900
O594        O  0.75871901  0.10410089  0.28199842    -0.82000
C595        C  0.75486144  0.13116345  0.18734571     0.99000
C596        C  0.75167634  0.12682335  0.30424352     1.04900
O597        O  0.76027094  0.15971838  0.21023004    -0.77700
C598        C  0.87748059  0.13358742  0.18929673     1.03200
C599        C  0.50299415  0.50175323  0.02511805    -0.02200
C600        C  0.50450927  0.99742549  0.47115323    -0.02200
C601        C  0.99139794  0.03224196  0.04653405    -0.11700
C602        C  0.99084312  0.06657453  0.02943675     0.03800
C603        C  0.97335069  0.08483012  0.05168917    -0.12300
C604        C  0.96183269  0.07468990  0.09300340     0.18600
C605        C  0.97098567  0.04839256  0.11352705    -0.09300
C606        C  0.98603127  0.02840626  0.09084033    -0.02300
H607        H  0.96979136  0.10823573  0.03709897     0.05100
C608        C  0.94028927  0.09163509  0.11434088     0.20600
H609        H  0.99142780  0.50839843  0.10767569     0.10300
C610        C  0.90016030  0.06944134  0.11768773    -0.15600
C611        C  0.87866587  0.08300369  0.14018967     0.03300
C612        C  0.89758327  0.11980018  0.16000512    -0.11000
C613        C  0.93786026  0.14255651  0.15488683    -0.01000
C614        C  0.95914535  0.12868088  0.13248136    -0.06100
H615        H  0.88554187  0.04100439  0.10324874     0.06300
H616        H  0.95327579  0.17066444  0.16980661     0.09700
Br617      Br  0.96114649  0.03687242  0.17205762    -0.05800
Br618      Br  0.51685471  0.09713522  0.98116200    -0.02800
Br619      Br  0.82384373  0.04934649  0.14198358     0.00100
Br620      Br  0.01413155  0.16014867  0.12927830    -0.04300
C621        C  0.72222811  0.11654490  0.15769955    -0.11700
C622        C  0.72293010  0.10023658  0.11880531     0.03800
C623        C  0.68947343  0.08308990  0.09437344    -0.12300
C624        C  0.65527768  0.08206727  0.10812487     0.18600
C625        C  0.65500832  0.09973686  0.14598234    -0.09300
C626        C  0.68828010  0.11693421  0.17023069    -0.02300
H627        H  0.68991773  0.06993249  0.06494616     0.05100
C628        C  0.61918565  0.06018020  0.08455943     0.20600
H629        H  0.68707251  0.12929917  0.19992599     0.10300
C630        C  0.59321224  0.02250392  0.09793596    -0.15600
C631        C  0.55549589  0.00267253  0.08233530     0.03300
C632        C  0.54407566  0.01848590  0.04694221    -0.11000
C633        C  0.57151048  0.05770524  0.03580496    -0.01000
C634        C  0.60772695  0.07823227  0.05402432    -0.06100
H635        H  0.60147519  0.00995108  0.12393127     0.06300
H636        H  0.56451104  0.07356094  0.01294305     0.09700
Br637      Br  0.60928539  0.09971939  0.16648067    -0.05800
Br638      Br  0.76887211  0.10182560  0.09690180    -0.02800
Br639      Br  0.52510144  0.46263527  0.12115029     0.00100
Br640      Br  0.63911743  0.13221386  0.03880147    -0.04300
C641        C  0.97417949  0.45943575  0.04442340    -0.11700
C642        C  0.93682244  0.44682809  0.06410794     0.03800
C643        C  0.91793476  0.41056896  0.08503032    -0.12300
C644        C  0.93243851  0.38424492  0.08518537     0.18600
C645        C  0.96477947  0.39278506  0.06065500    -0.09300
C646        C  0.98493070  0.42952149  0.04128413    -0.02300
H647        H  0.89133874  0.40262056  0.10185915     0.05100
C648        C  0.91484392  0.34939784  0.11315611     0.20600
H649        H  0.51018067  0.43485217  0.02468837     0.10300
C650        C  0.89592950  0.31168599  0.09633723    -0.15600
C651        C  0.88046034  0.27847353  0.12255670     0.03300
C652        C  0.88447200  0.28292290  0.16608475    -0.11000
C653        C  0.90271171  0.32044166  0.18284994    -0.01000
C654        C  0.91728767  0.35355754  0.15692037    -0.06100
H655        H  0.89331275  0.30814221  0.06281342     0.06300
H656        H  0.90512725  0.32397343  0.21640468     0.09700
Br657      Br  0.98533292  0.35710580  0.05604242    -0.05800
Br658      Br  0.90449466  0.47169583  0.06423019    -0.02800
Br659      Br  0.85499867  0.22773426  0.09787975     0.00100
Br660      Br  0.94020458  0.40357513  0.18334075    -0.04300
C661        C  0.97744326  0.01046874  0.44541049    -0.11700
C662        C  0.97748971  0.01446649  0.40047513     0.03800
C663        C  0.95655961  0.03083901  0.38103975    -0.12300
C664        C  0.93249812  0.04062717  0.40384719     0.18600
C665        C  0.92592637  0.02952951  0.44589714    -0.09400
C666        C  0.94660494  0.01274775  0.46493208    -0.02300
H667        H  0.95941036  0.03650680  0.34765396     0.05100
C668        C  0.91450987  0.06190936  0.38273848     0.20600
H669        H  0.93888405  0.00245903  0.49580593     0.10300
C670        C  0.87475442  0.04295029  0.37530197    -0.15600
C671        C  0.85752653  0.06133876  0.35221644     0.03300
C672        C  0.88062121  0.09959123  0.33537105    -0.11000
C673        C  0.92029479  0.11886954  0.34475320    -0.01000
C674        C  0.93717773  0.10046107  0.36799172    -0.06100
H675        H  0.85712797  0.01330273  0.38684717     0.06300
H676        H  0.93881151  0.14827353  0.33312492     0.09700
Br677      Br  0.89148260  0.03955484  0.47950216    -0.05800
Br678      Br  0.50542987  0.00103754  0.36096923    -0.02800
Br679      Br  0.80264527  0.03154236  0.34509506     0.00100
Br680      Br  0.99155566  0.12924803  0.37851688    -0.04300
C681        C  0.71963686  0.10973450  0.33451187    -0.11700
C682        C  0.68366299  0.07791525  0.32408277     0.03800
C683        C  0.65328067  0.06420303  0.35274167    -0.12300
C684        C  0.65798016  0.08158272  0.39181858     0.18600
C685        C  0.69395789  0.11275418  0.40265000    -0.09300
C686        C  0.72439104  0.12682605  0.37389188    -0.02300
H687        H  0.62546678  0.04033899  0.34418555     0.05100
C688        C  0.62397840  0.06715834  0.41938700     0.20600
H689        H  0.75187429  0.15126396  0.38227576     0.10300
C690        C  0.61668472  0.03720578  0.44792752    -0.15600
C691        C  0.57999633  0.01484459  0.46598125     0.03300
C692        C  0.54830151  0.02242431  0.45540838    -0.11000
C693        C  0.55938701  0.05680938  0.43039774    -0.01000
C694        C  0.59560522  0.07800054  0.41200643    -0.06100
H695        H  0.63912345  0.02918781  0.45372764     0.06300
H696        H  0.53978371  0.06739698  0.42208368     0.09700
Br697      Br  0.70268941  0.13736240  0.45572972    -0.05800
Br698      Br  0.67305869  0.05405703  0.27016972    -0.02800
Br699      Br  0.57917216  0.47271169  0.49872560     0.00100
Br700      Br  0.60419322  0.12035706  0.37442877    -0.04300
C701        C  0.88339209  0.27275180  0.34665896    -0.11700
C702        C  0.90584846  0.27218100  0.38096763     0.03800
C703        C  0.92265005  0.30436886  0.40764621    -0.12300
C704        C  0.91718399  0.33717788  0.40119816     0.18600
C705        C  0.89353969  0.33703059  0.36809133    -0.09300
C706        C  0.87666311  0.30498007  0.34164730    -0.02300
H707        H  0.94087207  0.30424795  0.43294354     0.05100
C708        C  0.94049509  0.37347743  0.42488417     0.20600
H709        H  0.85982667  0.30635438  0.31553959     0.10300
C710        C  0.97971010  0.39482903  0.41615922    -0.15600
C711        C  0.00236395  0.43357765  0.42931156     0.03300
C712        C  0.98577706  0.45224487  0.45536384    -0.11000
C713        C  0.94540741  0.42839230  0.46365531    -0.01000
C714        C  0.92367301  0.38999185  0.45027506    -0.06100
H715        H  0.99212077  0.38184499  0.39555346     0.06300
H716        H  0.92961279  0.43978116  0.48076861     0.09700
Br717      Br  0.88657490  0.38158855  0.35467646    -0.05800
Br718      Br  0.91428197  0.22840672  0.39363820    -0.02800
Br719      Br  0.55102614  0.45494265  0.39959914     0.00100
Br720      Br  0.87055289  0.36137475  0.46705839    -0.04300
Fe721      Fe  0.88766982  0.19519304  0.75251873     1.65800
Fe722      Fe  0.80385362  0.11042464  0.74363698     1.73200
Fe723      Fe  0.80261871  0.19644994  0.75089027     1.54400
O724        O  0.83997663  0.23780665  0.79239106    -0.81400
O725        O  0.77465666  0.11343334  0.69122608    -0.79700
O726        O  0.88697914  0.22350389  0.80626754    -0.83900
O727        O  0.89240942  0.24176559  0.71536047    -0.78800
O728        O  0.77073345  0.16379992  0.80101154    -0.80600
O729        O  0.84540452  0.10893129  0.70522004    -0.83300
C730        C  0.86887940  0.24936584  0.69512290     0.97500
C731        C  0.86897116  0.24239531  0.81379474     1.04900
O732        O  0.83147828  0.16730333  0.74894861    -1.12300
O733        O  0.83053898  0.10221988  0.79534519    -0.74700
O734        O  0.88981487  0.15215215  0.78978796    -0.78200
O735        O  0.83267024  0.23073294  0.70061210    -0.78900
C736        C  0.86582449  0.11917890  0.80557218     0.96400
O737        O  0.89418632  0.16933641  0.69956200    -0.76900
O738        O  0.75871878  0.10410086  0.78199811    -0.82000
C739        C  0.75486149  0.13116366  0.68734539     0.99000
C740        C  0.75167623  0.12682336  0.80424330     1.04900
O741        O  0.76027097  0.15971853  0.71022980    -0.77700
C742        C  0.87748033  0.13358716  0.68929645     1.03200
C743        C  0.50299430  0.50175339  0.52511799    -0.02200
C744        C  0.50450931  0.99742582  0.97115337    -0.02200
C745        C  0.99139777  0.03224165  0.54653394    -0.11700
C746        C  0.99084279  0.06657412  0.52943662     0.03800
C747        C  0.97335026  0.08482963  0.55168904    -0.12300
C748        C  0.96183227  0.07468936  0.59300328     0.18600
C749        C  0.97098542  0.04839216  0.61352696    -0.09300
C750        C  0.98603116  0.02840597  0.59084024    -0.02300
H751        H  0.96979084  0.10823513  0.53709886     0.05100
C752        C  0.94028882  0.09163452  0.61434076     0.20600
H753        H  0.99142816  0.50839827  0.60767573     0.10300
C754        C  0.90015991  0.06944046  0.61768830    -0.15600
C755        C  0.87866551  0.08300289  0.64019014     0.03300
C756        C  0.89758288  0.11979979  0.66000482    -0.11000
C757        C  0.93785977  0.14255642  0.65488572    -0.01000
C758        C  0.95914483  0.12868071  0.63248035    -0.06100
H759        H  0.88554151  0.04100321  0.60324987     0.06300
H760        H  0.95327528  0.17066472  0.66980478     0.09700
Br761      Br  0.96114629  0.03687204  0.67205760    -0.05800
Br762      Br  0.51685446  0.09713475  0.48116168    -0.02800
Br763      Br  0.82384343  0.04934525  0.64198493     0.00100
Br764      Br  0.01413093  0.16014911  0.62927620    -0.04300
C765        C  0.72222827  0.11654526  0.65769906    -0.11700
C766        C  0.72292999  0.10023615  0.61880524     0.03800
C767        C  0.68947326  0.08308929  0.59437347    -0.12300
C768        C  0.65527776  0.08206744  0.60812446     0.18600
C769        C  0.65500869  0.09973789  0.64598139    -0.09300
C770        C  0.68828049  0.11693529  0.67022976    -0.02300
H771        H  0.68991731  0.06993111  0.56494662     0.05100
C772        C  0.61918565  0.06018026  0.58455915     0.20600
H773        H  0.68707304  0.12930079  0.69992474     0.10300
C774        C  0.59321238  0.02250392  0.59793568    -0.15600
C775        C  0.55549600  0.00267241  0.58233507     0.03300
C776        C  0.54407563  0.01848569  0.54694204    -0.11000
C777        C  0.57151030  0.05770511  0.53580481    -0.01000
C778        C  0.60772675  0.07823225  0.55402417    -0.06100
H779        H  0.60147545  0.00995113  0.62393087     0.06300
H780        H  0.56451078  0.07356071  0.51294295     0.09700
Br781      Br  0.60928602  0.09972138  0.66647898    -0.05800
Br782      Br  0.76887163  0.10182403  0.59690220    -0.02800
Br783      Br  0.52510147  0.46263486  0.62114982     0.00100
Br784      Br  0.63911710  0.13221381  0.53880123    -0.04300
C785        C  0.97417962  0.45943581  0.54442311    -0.11700
C786        C  0.93682260  0.44682817  0.56410769     0.03800
C787        C  0.91793491  0.41056903  0.58503006    -0.12300
C788        C  0.93243856  0.38424490  0.58518496     0.18600
C789        C  0.96477938  0.39278498  0.56065435    -0.09300
C790        C  0.98493068  0.42952147  0.54128361    -0.02300
H791        H  0.89133890  0.40262064  0.60185895     0.05100
C792        C  0.91484399  0.34939780  0.61315573     0.20600
H793        H  0.51018051  0.43485213  0.52468779     0.10300
C794        C  0.89592965  0.31168591  0.59633691    -0.15600
C795        C  0.88046060  0.27847348  0.62255645     0.03300
C796        C  0.88447219  0.28292290  0.66608450    -0.11000
C797        C  0.90271173  0.32044169  0.68284961    -0.01000
C798        C  0.91728763  0.35355752  0.65691998    -0.06100
H799        H  0.89331296  0.30814207  0.56281314     0.06300
H800        H  0.90512721  0.32397353  0.71640438     0.09700
Br801      Br  0.98533248  0.35710546  0.55604125    -0.05800
Br802      Br  0.90449492  0.47169602  0.56422998    -0.02800
Br803      Br  0.85499934  0.22773416  0.59787955     0.00100
Br804      Br  0.94020454  0.40357512  0.68334029    -0.04300
C805        C  0.97744348  0.01046927  0.94541053    -0.11700
C806        C  0.97749000  0.01446707  0.90047517     0.03800
C807        C  0.95656002  0.03083972  0.88103976    -0.12300
C808        C  0.93249833  0.04062763  0.90384712     0.18600
C809        C  0.92592656  0.02953002  0.94589706    -0.09400
C810        C  0.94660521  0.01274840  0.96493210    -0.02300
H811        H  0.95941091  0.03650763  0.84765401     0.05100
C812        C  0.91450976  0.06190942  0.88273831     0.20600
H813        H  0.93888431  0.00245975  0.99580598     0.10300
C814        C  0.87475460  0.04294937  0.87530010    -0.15600
C815        C  0.85752655  0.06133755  0.85221434     0.03300
C816        C  0.88062077  0.09959080  0.83537066    -0.11000
C817        C  0.92029400  0.11887002  0.84475453    -0.01000
C818        C  0.93717711  0.10046173  0.86799312    -0.06100
H819        H  0.85712859  0.01330130  0.88684406     0.06300
H820        H  0.93881030  0.14827460  0.83312762     0.09700
Br821      Br  0.89148243  0.03955502  0.97950188    -0.05800
Br822      Br  0.50543013  0.00103779  0.86096938    -0.02800
Br823      Br  0.80264582  0.03153940  0.84508984     0.00100
Br824      Br  0.99155456  0.12924965  0.87852066    -0.04300
C825        C  0.71963677  0.10973453  0.83451168    -0.11700
C826        C  0.68366280  0.07791550  0.82408248     0.03800
C827        C  0.65328050  0.06420328  0.85274141    -0.12300
C828        C  0.65798015  0.08158271  0.89181849     0.18600
C829        C  0.69395801  0.11275389  0.90265003    -0.09300
C830        C  0.72439113  0.12682582  0.87389186    -0.02300
H831        H  0.62546656  0.04033948  0.84418522     0.05100
C832        C  0.62397841  0.06715833  0.91938696     0.20600
H833        H  0.75187446  0.15126353  0.88227584     0.10300
C834        C  0.61668467  0.03720571  0.94792742    -0.15600
C835        C  0.57999633  0.01484468  0.96598134     0.03300
C836        C  0.54830156  0.02242451  0.95540851    -0.11000
C837        C  0.55938716  0.05680964  0.93039793    -0.01000
C838        C  0.59560535  0.07800071  0.91200656    -0.06100
H839        H  0.63912332  0.02918760  0.95372741     0.06300
H840        H  0.53978396  0.06739743  0.92208403     0.09700
Br841      Br  0.70268980  0.13736173  0.95572995    -0.05800
Br842      Br  0.67305820  0.05405758  0.77016924    -0.02800
Br843      Br  0.57917229  0.47271205  0.99872575     0.00100
Br844      Br  0.60419361  0.12035752  0.87442919    -0.04300
C845        C  0.88339216  0.27275148  0.84665893    -0.11700
C846        C  0.90584835  0.27218045  0.88096767     0.03800
C847        C  0.92264994  0.30436821  0.90764642    -0.12300
C848        C  0.91718388  0.33717727  0.90119862     0.18600
C849        C  0.89353978  0.33703020  0.86809166    -0.09300
C850        C  0.87666336  0.30497986  0.84164738    -0.02300
H851        H  0.94087194  0.30424715  0.93294372     0.05100
C852        C  0.94049490  0.37347674  0.92488483     0.20600
H853        H  0.85982714  0.30635441  0.81553950     0.10300
C854        C  0.97970990  0.39482842  0.91615995    -0.15600
C855        C  0.00236368  0.43357707  0.92931218     0.03300
C856        C  0.98577667  0.45224429  0.95536429    -0.11000
C857        C  0.94540703  0.42839164  0.96365580    -0.01000
C858        C  0.92367272  0.38999114  0.95027564    -0.06100
H859        H  0.99212064  0.38184442  0.89555414     0.06300
H860        H  0.92961233  0.43978055  0.98076898     0.09700
Br861      Br  0.88657530  0.38158839  0.85467688    -0.05800
Br862      Br  0.91428163  0.22840600  0.89363802    -0.02800
Br863      Br  0.55102586  0.45494224  0.89959927     0.00100
Br864      Br  0.87055249  0.36137404  0.96705854    -0.04300
Fe865      Fe  0.88814949  0.69519670  0.25225198     1.65800
Fe866      Fe  0.80435266  0.61026123  0.24268519     1.73200
Fe867      Fe  0.80289965  0.69617134  0.25084193     1.54400
O868        O  0.84003893  0.73732727  0.29258743    -0.81400
O869        O  0.77500845  0.61356464  0.19050478    -0.79700
O870        O  0.88757834  0.72373115  0.30593469    -0.83900
O871        O  0.89278317  0.74160906  0.21488845    -0.78800
O872        O  0.77094343  0.66308863  0.30071396    -0.80600
O873        O  0.84578047  0.60911841  0.20382203    -0.83300
C874        C  0.86915408  0.74930337  0.19498109     0.97500
C875        C  0.86934594  0.74236234  0.31364515     1.04900
O876        O  0.83191350  0.66715382  0.24856983    -1.12300
O877        O  0.83123482  0.60161414  0.29402381    -0.74700
O878        O  0.89024898  0.65224149  0.28970682    -0.78200
O879        O  0.83299012  0.73086143  0.20085170    -0.78900
C880        C  0.86637317  0.61892589  0.30488039     0.96400
O881        O  0.89491324  0.66939367  0.19936084    -0.76900
O882        O  0.75921800  0.60354390  0.28132842    -0.82000
C883        C  0.75534076  0.63143476  0.18669650     0.99000
C884        C  0.75200911  0.62609105  0.30368546     1.04900
O885        O  0.76070125  0.65979722  0.20985547    -0.77700
C886        C  0.87801752  0.63386056  0.18832741     1.03200
C887        C  0.50252138  0.00157028  0.02543795    -0.02200
C888        C  0.50447234  0.49680421  0.47091025    -0.02200
C889        C  0.99201547  0.53272502  0.04569979    -0.11700
C890        C  0.99145288  0.56687621  0.02805316     0.03800
C891        C  0.97401288  0.58540681  0.04993173    -0.12300
C892        C  0.96248726  0.57566055  0.09130404     0.18600
C893        C  0.97174958  0.54965002  0.11229065    -0.09300
C894        C  0.98683724  0.52947160  0.09002299    -0.02300
H895        H  0.97041281  0.60863723  0.03496078     0.05100
C896        C  0.94083685  0.59268038  0.11228997     0.20600
H897        H  0.99054702  0.00709942  0.10813576     0.10300
C898        C  0.90070238  0.57045308  0.11556206    -0.15600
C899        C  0.87917843  0.58381951  0.13832559     0.03300
C900        C  0.89808292  0.62041419  0.15855746    -0.11000
C901        C  0.93833881  0.64329275  0.15333659    -0.01000
C902        C  0.95963950  0.62964187  0.13060936    -0.06100
H903        H  0.88611593  0.54209094  0.10096043     0.06300
H904        H  0.95374590  0.67130395  0.16844711     0.09700
Br905      Br  0.96182546  0.53861885  0.17088501    -0.05800
Br906      Br  0.51712843  0.59664747  0.97922281    -0.02800
Br907      Br  0.82435851  0.55013416  0.13996234     0.00100
Br908      Br  0.01459338  0.66127847  0.12723387    -0.04300
C909        C  0.72292499  0.61723232  0.15674566    -0.11700
C910        C  0.72370088  0.60095802  0.11784498     0.03800
C911        C  0.69035098  0.58402496  0.09321861    -0.12300
C912        C  0.65619262  0.58321028  0.10676073     0.18600
C913        C  0.65590373  0.60097084  0.14454806    -0.09300
C914        C  0.68907267  0.61797110  0.16897579    -0.02300
H915        H  0.69082053  0.57078784  0.06385420     0.05100
C916        C  0.62004547  0.56107958  0.08333680     0.20600
H917        H  0.68781015  0.63037303  0.19862527     0.10300
C918        C  0.59410224  0.52359181  0.09726049    -0.15600
C919        C  0.55628368  0.50363175  0.08199478     0.03300
C920        C  0.54469378  0.51897389  0.04632623    -0.11000
C921        C  0.57211827  0.55801726  0.03455408    -0.01000
C922        C  0.60845163  0.57875944  0.05250191    -0.06100
H923        H  0.60247714  0.51136181  0.12346113     0.06300
H924        H  0.56503399  0.57355841  0.01138228     0.09700
Br925      Br  0.61021277  0.60116690  0.16481402    -0.05800
Br926      Br  0.76959631  0.60227118  0.09619989    -0.02800
Br927      Br  0.52413449  0.96101810  0.12073024     0.00100
Br928      Br  0.63979194  0.63254623  0.03650454    -0.04300
C929        C  0.97347230  0.95902829  0.04405519    -0.11700
C930        C  0.93601764  0.94631221  0.06354442     0.03800
C931        C  0.91702434  0.90993092  0.08419606    -0.12300
C932        C  0.93155216  0.88362654  0.08428160     0.18600
C933        C  0.96383667  0.89219540  0.05961495    -0.09300
C934        C  0.98407737  0.92904806  0.04050066    -0.02300
H935        H  0.89039766  0.90192860  0.10098547     0.05100
C936        C  0.91416842  0.84889457  0.11244859     0.20600
H937        H  0.50931092  0.93442211  0.02385585     0.10300
C938        C  0.89584307  0.81107042  0.09585729    -0.15600
C939        C  0.88076701  0.77800403  0.12227407     0.03300
C940        C  0.88454804  0.78271564  0.16577990    -0.11000
C941        C  0.90210952  0.82031610  0.18233425    -0.01000
C942        C  0.91630719  0.85328142  0.15620516    -0.06100
H943        H  0.89338329  0.80732284  0.06235420     0.06300
H944        H  0.90427653  0.82401956  0.21587328     0.09700
Br945      Br  0.98431864  0.85648719  0.05457753    -0.05800
Br946      Br  0.90377107  0.97127380  0.06383871    -0.02800
Br947      Br  0.85603306  0.72710070  0.09791610     0.00100
Br948      Br  0.93826438  0.90338950  0.18240136    -0.04300
C949        C  0.97698763  0.50926214  0.44507252    -0.11700
C950        C  0.97632100  0.51217790  0.40007790     0.03800
C951        C  0.95526710  0.52829874  0.38041589    -0.12300
C952        C  0.93193626  0.53911894  0.40317235     0.18600
C953        C  0.92585559  0.52886073  0.44548476    -0.09400
C954        C  0.94648552  0.51209386  0.46468957    -0.02300
H955        H  0.95763565  0.53317657  0.34690021     0.05100
C956        C  0.91447381  0.56084003  0.38181033     0.20600
H957        H  0.93906853  0.50237110  0.49576832     0.10300
C958        C  0.87445053  0.54326851  0.37645734    -0.15600
C959        C  0.85755030  0.56209424  0.35353588     0.03300
C960        C  0.88119098  0.59925568  0.33457025    -0.11000
C961        C  0.92124007  0.61719698  0.34171955    -0.01000
C962        C  0.93781890  0.59845704  0.36491634    -0.06100
H963        H  0.85628014  0.51438445  0.38963795     0.06300
H964        H  0.94024280  0.64574527  0.32834616     0.09700
Br965      Br  0.89239638  0.54018219  0.47927806    -0.05800
Br966      Br  0.50353619  0.49766617  0.36075089    -0.02800
Br967      Br  0.80223515  0.53471278  0.35010235     0.00100
Br968      Br  0.99272522  0.62559988  0.37249879    -0.04300
C969        C  0.71976387  0.60877386  0.33362732    -0.11700
C970        C  0.68331161  0.57846658  0.32200033     0.03800
C971        C  0.65261389  0.56487563  0.35024130    -0.12300
C972        C  0.65755121  0.58075024  0.39018227     0.18600
C973        C  0.69410852  0.61014039  0.40229820    -0.09300
C974        C  0.72479270  0.62429977  0.37384488    -0.02300
H975        H  0.62446069  0.54219114  0.34079061     0.05100
C976        C  0.62344068  0.56624341  0.41764259     0.20600
H977        H  0.75270023  0.64752235  0.38313248     0.10300
C978        C  0.61656535  0.53687312  0.44681010    -0.15600
C979        C  0.58003808  0.51458271  0.46523945     0.03300
C980        C  0.54807550  0.52170238  0.45453895    -0.11000
C981        C  0.55868094  0.55547509  0.42864260    -0.01000
C982        C  0.59475605  0.57659093  0.40990454    -0.06100
H983        H  0.63922420  0.52922847  0.45287529     0.06300
H984        H  0.53884536  0.56570253  0.42006032     0.09700
Br985      Br  0.70338430  0.63215756  0.45679230    -0.05800
Br986      Br  0.67276431  0.55656030  0.26713767    -0.02800
Br987      Br  0.57852640  0.97229859  0.49870785     0.00100
Br988      Br  0.60289136  0.61848610  0.37183966    -0.04300
C989        C  0.88384936  0.77300377  0.34623823    -0.11700
C990        C  0.90676410  0.77301108  0.38034968     0.03800
C991        C  0.92354501  0.80546298  0.40670043    -0.12300
C992        C  0.91763995  0.83799722  0.40010808     0.18600
C993        C  0.89359924  0.83729365  0.36716403    -0.09300
C994        C  0.87672990  0.80497358  0.34106976    -0.02300
H995        H  0.94206117  0.80574805  0.43187594     0.05100
C996        C  0.94074865  0.87451490  0.42359444     0.20600
H997        H  0.85956226  0.80593179  0.31508587     0.10300
C998        C  0.97996623  0.89608192  0.41494449    -0.15600
C999        C  0.00250129  0.93473873  0.42846201     0.03300
C1000       C  0.98579832  0.95310007  0.45480167    -0.11000
C1001       C  0.94537106  0.92917387  0.46270488    -0.01000
C1002       C  0.92375675  0.89084240  0.44902353    -0.06100
H1003       H  0.99251974  0.88330017  0.39425973     0.06300
H1004       H  0.92947002  0.94035293  0.47994940     0.09700
Br1005     Br  0.88600434  0.88141553  0.35347750    -0.05800
Br1006     Br  0.91582418  0.72966810  0.39319546    -0.02800
Br1007     Br  0.55131694  0.95645007  0.39903299     0.00100
Br1008     Br  0.87063357  0.86195935  0.46573944    -0.04300
Fe1009     Fe  0.88814965  0.69519699  0.75225238     1.65800
Fe1010     Fe  0.80435293  0.61026130  0.74268573     1.73200
Fe1011     Fe  0.80289957  0.69617128  0.75084206     1.54400
O1012       O  0.84003862  0.73732735  0.79258753    -0.81400
O1013       O  0.77500851  0.61356430  0.69050526    -0.79700
O1014       O  0.88757831  0.72373166  0.80593483    -0.83900
O1015       O  0.89278316  0.74160902  0.71488853    -0.78800
O1016       O  0.77094322  0.66308856  0.80071403    -0.80600
O1017       O  0.84578082  0.60911853  0.70382268    -0.83300
C1018       C  0.86915401  0.74930325  0.69498121     0.97500
C1019       C  0.86934571  0.74236266  0.81364522     1.04900
O1020       O  0.83191363  0.66715394  0.74857010    -1.12300
O1021       O  0.83123519  0.60161450  0.79402445    -0.74700
O1022       O  0.89024919  0.65224214  0.78970760    -0.78200
O1023       O  0.83299006  0.73086138  0.70085192    -0.78900
C1024       C  0.86637348  0.61892652  0.80488118     0.96400
O1025       O  0.89491371  0.66939373  0.69936155    -0.76900
O1026       O  0.75921820  0.60354386  0.78132887    -0.82000
C1027       C  0.75534083  0.63143443  0.68669678     0.99000
C1028       C  0.75200907  0.62609098  0.80368567     1.04900
O1029       O  0.76070137  0.65979704  0.70985552    -0.77700
C1030       C  0.87801794  0.63386059  0.68832816     1.03200
C1031       C  0.50252134  0.00156994  0.52543781    -0.02200
C1032       C  0.50447191  0.49680370  0.97091034    -0.02200
C1033       C  0.99201566  0.53272502  0.54569994    -0.11700
C1034       C  0.99145281  0.56687610  0.52805344     0.03800
C1035       C  0.97401267  0.58540647  0.54993217    -0.12300
C1036       C  0.96248734  0.57566024  0.59130457     0.18600
C1037       C  0.97174989  0.54964981  0.61229105    -0.09300
C1038       C  0.98683753  0.52947147  0.59002319    -0.02300
H1039       H  0.97041244  0.60863682  0.53496134     0.05100
C1040       C  0.94083703  0.59268007  0.61229071     0.20600
H1041       H  0.99054704  0.00709922  0.60813565     0.10300
C1042       C  0.90070254  0.57045305  0.61556251    -0.15600
C1043       C  0.87917868  0.58381957  0.63832607     0.03300
C1044       C  0.89808331  0.62041408  0.65855831    -0.11000
C1045       C  0.93833926  0.64329232  0.65333784    -0.01000
C1046       C  0.95963982  0.62964137  0.63061049    -0.06100
H1047       H  0.88611598  0.54209101  0.60096056     0.06300
H1048       H  0.95374648  0.67130330  0.66844874     0.09700
Br1049     Br  0.96182577  0.53861844  0.67088541    -0.05800
Br1050     Br  0.51712835  0.59664766  0.47922327    -0.02800
Br1051     Br  0.82435869  0.55013462  0.63996244     0.00100
Br1052     Br  0.01459373  0.66127754  0.62723552    -0.04300
C1053       C  0.72292501  0.61723187  0.65674598    -0.11700
C1054       C  0.72370094  0.60095761  0.61784529     0.03800
C1055       C  0.69035108  0.58402456  0.59321888    -0.12300
C1056       C  0.65619271  0.58320989  0.60676090     0.18600
C1057       C  0.65590374  0.60097040  0.64454824    -0.09300
C1058       C  0.68907265  0.61797065  0.66897605    -0.02300
H1059       H  0.69082069  0.57078751  0.56385442     0.05100
C1060       C  0.62004563  0.56107929  0.58333680     0.20600
H1061       H  0.68781009  0.63037256  0.69862550     0.10300
C1062       C  0.59410234  0.52359147  0.59726031    -0.15600
C1063       C  0.55628378  0.50363154  0.58199459     0.03300
C1064       C  0.54469389  0.51897391  0.54632623    -0.11000
C1065       C  0.57211839  0.55801733  0.53455433    -0.01000
C1066       C  0.60845181  0.57875933  0.55250208    -0.06100
H1067       H  0.60247719  0.51136133  0.62346087     0.06300
H1068       H  0.56503405  0.57355866  0.51138276     0.09700
Br1069     Br  0.61021266  0.60116623  0.66481414    -0.05800
Br1070     Br  0.76959645  0.60227107  0.59620005    -0.02800
Br1071     Br  0.52413469  0.96101800  0.62073006     0.00100
Br1072     Br  0.63979215  0.63254616  0.53650495    -0.04300
C1073       C  0.97347231  0.95902801  0.54405516    -0.11700
C1074       C  0.93601758  0.94631185  0.56354430     0.03800
C1075       C  0.91702433  0.90993055  0.58419593    -0.12300
C1076       C  0.93155226  0.88362626  0.58428161     0.18600
C1077       C  0.96383686  0.89219518  0.55961508    -0.09300
C1078       C  0.98407747  0.92904782  0.54050072    -0.02300
H1079       H  0.89039760  0.90192817  0.60098526     0.05100
C1080       C  0.91416849  0.84889430  0.61244861     0.20600
H1081       H  0.50931103  0.93442180  0.52385587     0.10300
C1082       C  0.89584294  0.81107014  0.59585735    -0.15600
C1083       C  0.88076680  0.77800377  0.62227417     0.03300
C1084       C  0.88454796  0.78271545  0.66577998    -0.11000
C1085       C  0.90210976  0.82031592  0.68233428    -0.01000
C1086       C  0.91630743  0.85328121  0.65620516    -0.06100
H1087       H  0.89338310  0.80732256  0.56235425     0.06300
H1088       H  0.90427703  0.82401941  0.71587331     0.09700
Br1089     Br  0.98431902  0.85648709  0.55457795    -0.05800
Br1090     Br  0.90377093  0.97127338  0.56383878    -0.02800
Br1091     Br  0.85603260  0.72710033  0.59791645     0.00100
Br1092     Br  0.93826502  0.90338936  0.68240120    -0.04300
C1093       C  0.97698688  0.50926136  0.94507267    -0.11700
C1094       C  0.97631979  0.51217661  0.90007806     0.03800
C1095       C  0.95526594  0.52829754  0.88041611    -0.12300
C1096       C  0.93193590  0.53911870  0.90317274     0.18600
C1097       C  0.92585554  0.52886086  0.94548528    -0.09400
C1098       C  0.94648511  0.51209352  0.96468990    -0.02300
H1099       H  0.95763406  0.53317489  0.84690036     0.05100
C1100       C  0.91447390  0.56084024  0.88181071     0.20600
H1101       H  0.93906824  0.50237092  0.99576869     0.10300
C1102       C  0.87445042  0.54327016  0.87646006    -0.15600
C1103       C  0.85755040  0.56209629  0.85353895     0.03300
C1104       C  0.88119144  0.59925647  0.83457101    -0.11000
C1105       C  0.92124084  0.61719639  0.84171778    -0.01000
C1106       C  0.93781951  0.59845622  0.86491445    -0.06100
H1107       H  0.85627963  0.51438692  0.88964237     0.06300
H1108       H  0.94024388  0.64574374  0.82834248     0.09700
Br1109     Br  0.89239745  0.54018353  0.97927910    -0.05800
Br1110     Br  0.50353430  0.49766425  0.86075099    -0.02800
Br1111     Br  0.80223499  0.53471749  0.85010962     0.00100
Br1112     Br  0.99272627  0.62559747  0.87249389    -0.04300
C1113       C  0.71976370  0.60877374  0.83362732    -0.11700
C1114       C  0.68331135  0.57846697  0.82199979     0.03800
C1115       C  0.65261345  0.56487600  0.85024050    -0.12300
C1116       C  0.65755064  0.58075003  0.89018175     0.18600
C1117       C  0.69410805  0.61013967  0.90229823    -0.09300
C1118       C  0.72479241  0.62429911  0.87384512    -0.02300
H1119       H  0.62446020  0.54219189  0.84078935     0.05100
C1120       C  0.62343994  0.56624302  0.91764192     0.20600
H1121       H  0.75270002  0.64752141  0.88313306     0.10300
C1122       C  0.61656491  0.53687310  0.94680979    -0.15600
C1123       C  0.58003771  0.51458262  0.96523928     0.03300
C1124       C  0.54807492  0.52170194  0.95453873    -0.11000
C1125       C  0.55867999  0.55547425  0.92864187    -0.01000
C1126       C  0.59475501  0.57659006  0.90990359    -0.06100
H1127       H  0.63922394  0.52922876  0.95287516     0.06300
H1128       H  0.53884423  0.56570143  0.92005945     0.09700
Br1129     Br  0.70338366  0.63215624  0.95679264    -0.05800
Br1130     Br  0.67276428  0.55656138  0.76713681    -0.02800
Br1131     Br  0.57852644  0.97229880  0.99870821     0.00100
Br1132     Br  0.60288983  0.61848463  0.87183814    -0.04300
C1133       C  0.88384895  0.77300410  0.84623826    -0.11700
C1134       C  0.90676349  0.77301137  0.88034986     0.03800
C1135       C  0.92354435  0.80546328  0.90670059    -0.12300
C1136       C  0.91763932  0.83799752  0.90010815     0.18600
C1137       C  0.89359861  0.83729391  0.86716404    -0.09300
C1138       C  0.87672947  0.80497388  0.84106968    -0.02300
H1139       H  0.94206045  0.80574833  0.93187617     0.05100
C1140       C  0.94074815  0.87451525  0.92359441     0.20600
H1141       H  0.85956197  0.80593208  0.81508565     0.10300
C1142       C  0.97996574  0.89608212  0.91494442    -0.15600
C1143       C  0.00250099  0.93473888  0.92846201     0.03300
C1144       C  0.98579816  0.95310038  0.95480165    -0.11000
C1145       C  0.94537087  0.92917436  0.96270481    -0.01000
C1146       C  0.92375640  0.89084289  0.94902351    -0.06100
H1147       H  0.99251913  0.88330029  0.89425958     0.06300
H1148       H  0.92946993  0.94035357  0.97994931     0.09700
Br1149     Br  0.88600366  0.88141571  0.85347734    -0.05800
Br1150     Br  0.91582324  0.72966826  0.89319591    -0.02800
Br1151     Br  0.55131681  0.95644993  0.89903341     0.00100
Br1152     Br  0.87063316  0.86196013  0.96573925    -0.04300
loop_ 
_geom_bond_atom_site_label_1 
_geom_bond_atom_site_label_2 
_geom_bond_distance 
_geom_bond_site_symmetry_2 
_ccdc_geom_bond_type 
Fe1          O17   2.063       .  S
Fe1           O7   2.085       .  S
Fe1          O14   2.076       .  S
Fe1           O6   2.065       .  S
Fe1          O12   1.953       .  S
Fe2           O5   2.067       .  S
Fe2           O9   2.076       .  S
Fe2          O13   2.062       .  S
Fe2          O18   2.080       .  S
Fe2          O12   1.954       .  S
Fe3          O21   2.073       .  S
Fe3           O8   2.050       .  S
Fe3          O15   2.054       .  S
Fe3           O4   2.078       .  S
Fe3          O12   1.954       .  S
O4           C11   1.271       .  A
O5           C19   1.269       .  A
O6           C11   1.267       .  A
O7           C10   1.274       .  A
O8           C20   1.268       .  A
O9           C22   1.270       .  A
C10          O15   1.268       .  A
C10          C76   1.466       .  S
C11         C125   1.489       .  S
O13          C16   1.268       .  A
O14          C16   1.274       .  A
C16          C96   1.494       .  S
O17          C22   1.270       .  A
O18          C20   1.272       .  A
C19          O21   1.270       .  A
C19          C45   1.481       .  S
C20         C105   1.472       .  S
C22          C36   1.490       .  S
C23         C456   1.755   1_554  S
C23         C889   1.611   1_455  S
C23         C344   1.604       .  S
C23         C641   1.604   1_455  S
C24         C455   1.755   1_565  S
C24         C116   1.604   1_565  S
C24         C661   1.605   1_465  S
C24        C1000   1.613   1_455  S
C25         C887   1.611       .  S
C25          C26   1.446       .  A
C25          C30   1.431       .  A
C26          C27   1.404       .  A
C26        Br618   1.911   1_554  S
C27          C28   1.390       .  A
C27          H31   1.084       .  S
C28          C32   1.474       .  S
C28          C29   1.393       .  A
C29          C30   1.394       .  A
C29         Br41   1.919       .  S
C30         H321   1.073       .  S
C32          C34   1.399       .  A
C32          C38   1.402       .  A
H33         C318   1.073       .  S
C34          C35   1.399       .  A
C34          H39   1.084       .  S
C35          C36   1.419       .  A
C35         Br43   1.922       .  S
C36          C37   1.411       .  A
C37          C38   1.399       .  A
C37          H40   1.083       .  S
C38         Br44   1.918       .  S
Br42        C602   1.911   1_456  S
C45          C46   1.413       .  A
C45          C50   1.406       .  A
C46          C47   1.404       .  A
C46         Br62   1.918       .  S
C47          C48   1.402       .  A
C47          H51   1.083       .  S
C48          C52   1.476       .  S
C48          C49   1.405       .  A
C49          C50   1.395       .  A
C49         Br61   1.921       .  S
C50          H53   1.084       .  S
C52          C54   1.390       .  A
C52          C58   1.391       .  A
C54          C55   1.404       .  A
C54          H59   1.085       .  S
C55          C56   1.452       .  A
C55        Br351   1.926   1_545  S
C56         C311   1.604       .  S
C56          C57   1.427       .  A
C57          C58   1.393       .  A
C57          H60   1.068       .  S
C58         Br64   1.917       .  S
Br63        C343   1.926       .  S
C65         C599   1.604       .  S
C65          C66   1.455       .  A
C65          C70   1.420       .  A
C66          C67   1.402       .  A
C66         Br82   1.933       .  S
C67          C68   1.390       .  A
C67          H71   1.084       .  S
C68          C72   1.481       .  S
C68          C69   1.396       .  A
C69          C70   1.397       .  A
C69         Br81   1.919       .  S
C70         H649   1.059       .  S
C72          C74   1.405       .  A
C72          C78   1.412       .  A
H73         C646   1.059   1_455  S
C74          C75   1.402       .  A
C74          H79   1.083       .  S
C75          C76   1.407       .  A
C75         Br83   1.918       .  S
C76          C77   1.398       .  A
C77          C78   1.395       .  A
C77          H80   1.084       .  S
C78         Br84   1.919       .  S
C85         C600   1.605   1_545  S
C85          C86   1.446       .  A
C85          C90   1.410       .  A
C86          C87   1.401       .  A
C86        Br678   1.914       .  S
C87          C88   1.391       .  A
C87          H91   1.084       .  S
C88          C92   1.479       .  S
C88          C89   1.396       .  A
C89          C90   1.399       .  A
C89        Br101   1.919       .  S
C90          H93   1.052       .  S
C92          C94   1.400       .  A
C92          C98   1.405       .  A
C94          C95   1.402       .  A
C94          H99   1.084       .  S
C95          C96   1.422       .  A
C95        Br103   1.922       .  S
C96          C97   1.410       .  A
C97          C98   1.395       .  A
C97         H100   1.083       .  S
C98        Br104   1.920       .  S
Br102       C662   1.914   1_455  S
C105        C106   1.411       .  A
C105        C110   1.405       .  A
C106        C107   1.395       .  A
C106       Br122   1.922       .  S
C107        C108   1.401       .  A
C107        H111   1.084       .  S
C108        C112   1.473       .  S
C108        C109   1.405       .  A
C109        C110   1.398       .  A
C109       Br121   1.912       .  S
C110        H113   1.084       .  S
C112        C114   1.388       .  A
C112        C118   1.390       .  A
C114        C115   1.406       .  A
C114        H119   1.084       .  S
C115        C116   1.453       .  A
C115       Br411   1.923   1_545  S
C116        C117   1.426       .  A
C117        C118   1.391       .  A
C117        H120   1.067       .  S
C118       Br124   1.921       .  S
Br123       C403   1.924       .  S
C125        C126   1.417       .  A
C125        C130   1.406       .  A
C126        C127   1.405       .  A
C126       Br142   1.921       .  S
C127        C128   1.404       .  A
C127        H131   1.084       .  S
C128        C132   1.485       .  S
C128        C129   1.409       .  A
C129        C130   1.397       .  A
C129       Br141   1.922       .  S
C130        H133   1.083       .  S
C132        C134   1.390       .  A
C132        C138   1.392       .  A
C134        C135   1.407       .  A
C134        H139   1.085       .  S
C135        C136   1.458       .  A
C135       Br719   1.936       .  S
C136        C888   1.612       .  S
C136        C137   1.433       .  A
C137        C138   1.394       .  A
C137        H140   1.076       .  S
C138       Br144   1.919       .  S
Br143       C711   1.936       .  S
Fe145       O161   2.063       .  S
Fe145       O151   2.085       .  S
Fe145       O158   2.076       .  S
Fe145       O150   2.065       .  S
Fe145       O156   1.953       .  S
Fe146       O149   2.067       .  S
Fe146       O153   2.076       .  S
Fe146       O157   2.062       .  S
Fe146       O162   2.080       .  S
Fe146       O156   1.954       .  S
Fe147       O165   2.073       .  S
Fe147       O152   2.050       .  S
Fe147       O159   2.054       .  S
Fe147       O148   2.078       .  S
Fe147       O156   1.954       .  S
O148        C155   1.271       .  A
O149        C163   1.269       .  A
O150        C155   1.267       .  A
O151        C154   1.274       .  A
O152        C164   1.268       .  A
O153        C166   1.270       .  A
C154        O159   1.268       .  A
C154        C220   1.466       .  S
C155        C269   1.489       .  S
O157        C160   1.268       .  A
O158        C160   1.274       .  A
C160        C240   1.494       .  S
O161        C166   1.270       .  A
O162        C164   1.272       .  A
C163        O165   1.270       .  A
C163        C189   1.481       .  S
C164        C249   1.472       .  S
C166        C180   1.490       .  S
C167        C312   1.755       .  S
C167       C1033   1.611   1_455  S
C167        C488   1.604       .  S
C167        C785   1.604   1_455  S
C168        C311   1.755   1_566  S
C168        C805   1.605   1_465  S
C168        C260   1.604   1_565  S
C168       C1144   1.613   1_455  S
C169       C1031   1.611       .  S
C169        C170   1.446       .  A
C169        C174   1.431       .  A
C170        C171   1.404       .  A
C170       Br762   1.911       .  S
C171        C172   1.390       .  A
C171        H175   1.084       .  S
C172        C176   1.474       .  S
C172        C173   1.393       .  A
C173        C174   1.394       .  A
C173       Br185   1.919       .  S
C174        H465   1.073       .  S
C176        C178   1.399       .  A
C176        C182   1.402       .  A
H177        C462   1.073       .  S
C178        C179   1.399       .  A
C178        H183   1.084       .  S
C179        C180   1.419       .  A
C179       Br187   1.922       .  S
C180        C181   1.411       .  A
C181        C182   1.399       .  A
C181        H184   1.083       .  S
C182       Br188   1.918       .  S
Br186       C746   1.911   1_455  S
C189        C190   1.413       .  A
C189        C194   1.406       .  A
C190        C191   1.404       .  A
C190       Br206   1.918       .  S
C191        C192   1.402       .  A
C191        H195   1.083       .  S
C192        C196   1.476       .  S
C192        C193   1.405       .  A
C193        C194   1.395       .  A
C193       Br205   1.921       .  S
C194        H197   1.084       .  S
C196        C198   1.390       .  A
C196        C202   1.391       .  A
C198        C199   1.404       .  A
C198        H203   1.085       .  S
C199        C200   1.452       .  A
C199       Br495   1.926   1_545  S
C200        C455   1.604       .  S
C200        C201   1.427       .  A
C201        C202   1.393       .  A
C201        H204   1.068       .  S
C202       Br208   1.917       .  S
Br207       C487   1.926       .  S
C209        C743   1.604       .  S
C209        C210   1.455       .  A
C209        C214   1.420       .  A
C210        C211   1.402       .  A
C210       Br226   1.933       .  S
C211        C212   1.390       .  A
C211        H215   1.084       .  S
C212        C216   1.481       .  S
C212        C213   1.396       .  A
C213        C214   1.397       .  A
C213       Br225   1.919       .  S
C214        H793   1.059       .  S
C216        C218   1.405       .  A
C216        C222   1.412       .  A
H217        C790   1.059   1_455  S
C218        C219   1.402       .  A
C218        H223   1.083       .  S
C219        C220   1.407       .  A
C219       Br227   1.918       .  S
C220        C221   1.398       .  A
C221        C222   1.395       .  A
C221        H224   1.084       .  S
C222       Br228   1.919       .  S
C229        C744   1.605   1_545  S
C229        C230   1.446       .  A
C229        C234   1.410       .  A
C230        C231   1.401       .  A
C230       Br822   1.914       .  S
C231        C232   1.391       .  A
C231        H235   1.084       .  S
C232        C236   1.479       .  S
C232        C233   1.396       .  A
C233        C234   1.399       .  A
C233       Br245   1.919       .  S
C234        H237   1.052       .  S
C236        C238   1.400       .  A
C236        C242   1.405       .  A
C238        C239   1.402       .  A
C238        H243   1.084       .  S
C239        C240   1.422       .  A
C239       Br247   1.922       .  S
C240        C241   1.410       .  A
C241        C242   1.395       .  A
C241        H244   1.083       .  S
C242       Br248   1.920       .  S
Br246       C806   1.914   1_455  S
C249        C250   1.411       .  A
C249        C254   1.405       .  A
C250        C251   1.395       .  A
C250       Br266   1.922       .  S
C251        C252   1.401       .  A
C251        H255   1.084       .  S
C252        C256   1.473       .  S
C252        C253   1.405       .  A
C253        C254   1.398       .  A
C253       Br265   1.912       .  S
C254        H257   1.084       .  S
C256        C258   1.388       .  A
C256        C262   1.390       .  A
C258        C259   1.406       .  A
C258        H263   1.084       .  S
C259        C260   1.453       .  A
C259       Br555   1.923   1_545  S
C260        C261   1.426       .  A
C261        C262   1.391       .  A
C261        H264   1.067       .  S
C262       Br268   1.921       .  S
Br267       C547   1.924       .  S
C269        C270   1.417       .  A
C269        C274   1.406       .  A
C270        C271   1.405       .  A
C270       Br286   1.921       .  S
C271        C272   1.404       .  A
C271        H275   1.084       .  S
C272        C276   1.485       .  S
C272        C273   1.409       .  A
C273        C274   1.397       .  A
C273       Br285   1.922       .  S
C274        H277   1.083       .  S
C276        C278   1.390       .  A
C276        C282   1.392       .  A
C278        C279   1.407       .  A
C278        H283   1.085       .  S
C279        C280   1.458       .  A
C279       Br863   1.936       .  S
C280       C1032   1.612       .  S
C280        C281   1.433       .  A
C281        C282   1.394       .  A
C281        H284   1.076       .  S
C282       Br288   1.919       .  S
Br287       C855   1.936       .  S
Fe289       O305   2.063       .  S
Fe289       O295   2.085       .  S
Fe289       O302   2.076       .  S
Fe289       O294   2.066       .  S
Fe289       O300   1.955       .  S
Fe290       O293   2.068       .  S
Fe290       O297   2.075       .  S
Fe290       O301   2.064       .  S
Fe290       O306   2.081       .  S
Fe290       O300   1.957       .  S
Fe291       O309   2.072       .  S
Fe291       O296   2.050       .  S
Fe291       O303   2.053       .  S
Fe291       O292   2.077       .  S
Fe291       O300   1.955       .  S
O292        C299   1.271       .  A
O293        C307   1.269       .  A
O294        C299   1.267       .  A
O295        C298   1.274       .  A
O296        C308   1.268       .  A
O297        C310   1.270       .  A
C298        O303   1.268       .  A
C298        C364   1.466       .  S
C299        C413   1.490       .  S
O301        C304   1.269       .  A
O302        C304   1.274       .  A
C304        C384   1.495       .  S
O305        C310   1.270       .  A
O306        C308   1.273       .  A
C307        O309   1.270       .  A
C307        C333   1.482       .  S
C308        C393   1.471       .  S
C310        C324   1.491       .  S
C311        C601   1.611   1_455  S
C311        C929   1.604   1_445  S
C312        C949   1.606   1_455  S
C312        C404   1.604       .  S
C312        C712   1.612   1_455  S
C313        C599   1.611       .  S
C313        C314   1.446       .  A
C313        C318   1.431       .  A
C314        C315   1.405       .  A
C314       Br906   1.911   1_554  S
C315        C316   1.390       .  A
C315        H319   1.084       .  S
C316        C320   1.475       .  S
C316        C317   1.393       .  A
C317        C318   1.394       .  A
C317       Br329   1.919       .  S
C320        C322   1.399       .  A
C320        C326   1.402       .  A
C322        C323   1.399       .  A
C322        H327   1.084       .  S
C323        C324   1.419       .  A
C323       Br331   1.922       .  S
C324        C325   1.411       .  A
C325        C326   1.399       .  A
C325        H328   1.083       .  S
C326       Br332   1.918       .  S
Br330       C890   1.911   1_456  S
C333        C334   1.413       .  A
C333        C338   1.406       .  A
C334        C335   1.404       .  A
C334       Br350   1.918       .  S
C335        C336   1.402       .  A
C335        H339   1.083       .  S
C336        C340   1.477       .  S
C336        C337   1.405       .  A
C337        C338   1.395       .  A
C337       Br349   1.921       .  S
C338        H341   1.084       .  S
C340        C342   1.390       .  A
C340        C346   1.391       .  A
C342        C343   1.404       .  A
C342        H347   1.085       .  S
C343        C344   1.452       .  A
C344        C345   1.427       .  A
C345        C346   1.394       .  A
C345        H348   1.068       .  S
C346       Br352   1.916       .  S
C353        C887   1.604   1_565  S
C353        C354   1.455       .  A
C353        C358   1.420       .  A
C354        C355   1.402       .  A
C354       Br370   1.933       .  S
C355        C356   1.390       .  A
C355        H359   1.084       .  S
C356        C360   1.481       .  S
C356        C357   1.397       .  A
C357        C358   1.397       .  A
C357       Br369   1.919       .  S
C358        H937   1.058       .  S
C360        C362   1.405       .  A
C360        C366   1.412       .  A
H361        C934   1.058   1_455  S
C362        C363   1.402       .  A
C362        H367   1.083       .  S
C363        C364   1.407       .  A
C363       Br371   1.918       .  S
C364        C365   1.398       .  A
C365        C366   1.395       .  A
C365        H368   1.084       .  S
C366       Br372   1.920       .  S
C373        C888   1.606       .  S
C373        C374   1.446       .  A
C373        C378   1.410       .  A
C374        C375   1.401       .  A
C374       Br966   1.914       .  S
C375        C376   1.392       .  A
C375        H379   1.084       .  S
C376        C380   1.481       .  S
C376        C377   1.396       .  A
C377        C378   1.399       .  A
C377       Br389   1.919       .  S
C378        H381   1.052       .  S
C380        C382   1.401       .  A
C380        C386   1.406       .  A
C382        C383   1.402       .  A
C382        H387   1.084       .  S
C383        C384   1.421       .  A
C383       Br391   1.922       .  S
C384        C385   1.410       .  A
C385        C386   1.395       .  A
C385        H388   1.083       .  S
C386       Br392   1.921       .  S
Br390       C950   1.914   1_455  S
C393        C394   1.411       .  A
C393        C398   1.404       .  A
C394        C395   1.395       .  A
C394       Br410   1.921       .  S
C395        C396   1.401       .  A
C395        H399   1.084       .  S
C396        C400   1.474       .  S
C396        C397   1.405       .  A
C397        C398   1.398       .  A
C397       Br409   1.912       .  S
C398        H401   1.084       .  S
C400        C402   1.388       .  A
C400        C406   1.390       .  A
C402        C403   1.405       .  A
C402        H407   1.084       .  S
C403        C404   1.453       .  A
C404        C405   1.427       .  A
C405        C406   1.392       .  A
C405        H408   1.067       .  S
C406       Br412   1.921       .  S
C413        C414   1.417       .  A
C413        C418   1.406       .  A
C414        C415   1.405       .  A
C414       Br430   1.921       .  S
C415        C416   1.404       .  A
C415        H419   1.084       .  S
C416        C420   1.486       .  S
C416        C417   1.409       .  A
C417        C418   1.397       .  A
C417       Br429   1.922       .  S
C418        H421   1.083       .  S
C420        C422   1.390       .  A
C420        C426   1.393       .  A
C422        C423   1.407       .  A
C422        H427   1.085       .  S
C423        C424   1.458       .  A
C423      Br1007   1.936       .  S
C424        C600   1.613       .  S
C424        C425   1.433       .  A
C425        C426   1.395       .  A
C425        H428   1.075       .  S
C426       Br432   1.920       .  S
Br431       C999   1.936       .  S
Fe433       O449   2.063       .  S
Fe433       O439   2.085       .  S
Fe433       O446   2.076       .  S
Fe433       O438   2.066       .  S
Fe433       O444   1.955       .  S
Fe434       O437   2.068       .  S
Fe434       O441   2.075       .  S
Fe434       O445   2.064       .  S
Fe434       O450   2.081       .  S
Fe434       O444   1.957       .  S
Fe435       O453   2.072       .  S
Fe435       O440   2.050       .  S
Fe435       O447   2.053       .  S
Fe435       O436   2.077       .  S
Fe435       O444   1.955       .  S
O436        C443   1.271       .  A
O437        C451   1.269       .  A
O438        C443   1.267       .  A
O439        C442   1.274       .  A
O440        C452   1.268       .  A
O441        C454   1.270       .  A
C442        O447   1.268       .  A
C442        C508   1.466       .  S
C443        C557   1.490       .  S
O445        C448   1.269       .  A
O446        C448   1.274       .  A
C448        C528   1.495       .  S
O449        C454   1.270       .  A
O450        C452   1.273       .  A
C451        O453   1.270       .  A
C451        C477   1.482       .  S
C452        C537   1.471       .  S
C454        C468   1.491       .  S
C455        C745   1.611   1_455  S
C455       C1073   1.604   1_445  S
C456       C1093   1.606   1_455  S
C456        C548   1.604       .  S
C456        C856   1.612   1_455  S
C457        C743   1.611       .  S
C457        C458   1.446       .  A
C457        C462   1.431       .  A
C458        C459   1.405       .  A
C458      Br1050   1.911       .  S
C459        C460   1.390       .  A
C459        H463   1.084       .  S
C460        C464   1.475       .  S
C460        C461   1.393       .  A
C461        C462   1.394       .  A
C461       Br473   1.919       .  S
C464        C466   1.399       .  A
C464        C470   1.402       .  A
C466        C467   1.399       .  A
C466        H471   1.084       .  S
C467        C468   1.419       .  A
C467       Br475   1.922       .  S
C468        C469   1.411       .  A
C469        C470   1.399       .  A
C469        H472   1.083       .  S
C470       Br476   1.918       .  S
Br474      C1034   1.911   1_455  S
C477        C478   1.413       .  A
C477        C482   1.406       .  A
C478        C479   1.404       .  A
C478       Br494   1.918       .  S
C479        C480   1.402       .  A
C479        H483   1.083       .  S
C480        C484   1.477       .  S
C480        C481   1.405       .  A
C481        C482   1.395       .  A
C481       Br493   1.921       .  S
C482        H485   1.084       .  S
C484        C486   1.390       .  A
C484        C490   1.391       .  A
C486        C487   1.404       .  A
C486        H491   1.085       .  S
C487        C488   1.452       .  A
C488        C489   1.427       .  A
C489        C490   1.394       .  A
C489        H492   1.068       .  S
C490       Br496   1.916       .  S
C497       C1031   1.604   1_565  S
C497        C498   1.455       .  A
C497        C502   1.420       .  A
C498        C499   1.402       .  A
C498       Br514   1.933       .  S
C499        C500   1.390       .  A
C499        H503   1.084       .  S
C500        C504   1.481       .  S
C500        C501   1.397       .  A
C501        C502   1.397       .  A
C501       Br513   1.919       .  S
C502       H1081   1.058       .  S
C504        C506   1.405       .  A
C504        C510   1.412       .  A
H505       C1078   1.058   1_455  S
C506        C507   1.402       .  A
C506        H511   1.083       .  S
C507        C508   1.407       .  A
C507       Br515   1.918       .  S
C508        C509   1.398       .  A
C509        C510   1.395       .  A
C509        H512   1.084       .  S
C510       Br516   1.920       .  S
C517       C1032   1.606       .  S
C517        C518   1.446       .  A
C517        C522   1.410       .  A
C518        C519   1.401       .  A
C518      Br1110   1.914       .  S
C519        C520   1.392       .  A
C519        H523   1.084       .  S
C520        C524   1.481       .  S
C520        C521   1.396       .  A
C521        C522   1.399       .  A
C521       Br533   1.919       .  S
C522        H525   1.052       .  S
C524        C526   1.401       .  A
C524        C530   1.406       .  A
C526        C527   1.402       .  A
C526        H531   1.084       .  S
C527        C528   1.421       .  A
C527       Br535   1.922       .  S
C528        C529   1.410       .  A
C529        C530   1.395       .  A
C529        H532   1.083       .  S
C530       Br536   1.921       .  S
Br534      C1094   1.914   1_455  S
C537        C538   1.411       .  A
C537        C542   1.404       .  A
C538        C539   1.395       .  A
C538       Br554   1.921       .  S
C539        C540   1.401       .  A
C539        H543   1.084       .  S
C540        C544   1.474       .  S
C540        C541   1.405       .  A
C541        C542   1.398       .  A
C541       Br553   1.912       .  S
C542        H545   1.084       .  S
C544        C546   1.388       .  A
C544        C550   1.390       .  A
C546        C547   1.405       .  A
C546        H551   1.084       .  S
C547        C548   1.453       .  A
C548        C549   1.427       .  A
C549        C550   1.392       .  A
C549        H552   1.067       .  S
C550       Br556   1.921       .  S
C557        C558   1.417       .  A
C557        C562   1.406       .  A
C558        C559   1.405       .  A
C558       Br574   1.921       .  S
C559        C560   1.404       .  A
C559        H563   1.084       .  S
C560        C564   1.486       .  S
C560        C561   1.409       .  A
C561        C562   1.397       .  A
C561       Br573   1.922       .  S
C562        H565   1.083       .  S
C564        C566   1.390       .  A
C564        C570   1.393       .  A
C566        C567   1.407       .  A
C566        H571   1.085       .  S
C567        C568   1.458       .  A
C567      Br1151   1.936       .  S
C568        C744   1.613       .  S
C568        C569   1.433       .  A
C569        C570   1.395       .  A
C569        H572   1.075       .  S
C570       Br576   1.920       .  S
Br575      C1143   1.936       .  S
Fe577       O593   2.063       .  S
Fe577       O583   2.085       .  S
Fe577       O590   2.076       .  S
Fe577       O582   2.065       .  S
Fe577       O588   1.953       .  S
Fe578       O581   2.067       .  S
Fe578       O585   2.076       .  S
Fe578       O589   2.062       .  S
Fe578       O594   2.080       .  S
Fe578       O588   1.954       .  S
Fe579       O597   2.073       .  S
Fe579       O584   2.050       .  S
Fe579       O591   2.054       .  S
Fe579       O580   2.078       .  S
Fe579       O588   1.954       .  S
O580        C587   1.271       .  A
O581        C595   1.269       .  A
O582        C587   1.267       .  A
O583        C586   1.274       .  A
O584        C596   1.268       .  A
O585        C598   1.270       .  A
C586        O591   1.268       .  A
C586        C652   1.466       .  S
C587        C701   1.489       .  S
O589        C592   1.268       .  A
O590        C592   1.274       .  A
C592        C672   1.494       .  S
O593        C598   1.270       .  A
O594        C596   1.272       .  A
C595        O597   1.270       .  A
C595        C621   1.481       .  S
C596        C681   1.472       .  S
C598        C612   1.490       .  S
C599       C1032   1.755   1_554  S
C599        C920   1.604       .  S
C600       C1031   1.755   1_565  S
C600        C692   1.604   1_565  S
C601        C602   1.446       .  A
C601        C606   1.431       .  A
C602        C603   1.404       .  A
C603        C604   1.390       .  A
C603        H607   1.084       .  S
C604        C608   1.474       .  S
C604        C605   1.393       .  A
C605        C606   1.394       .  A
C605       Br617   1.919       .  S
C606        H897   1.073       .  S
C608        C610   1.399       .  A
C608        C614   1.402       .  A
H609        C894   1.073       .  S
C610        C611   1.399       .  A
C610        H615   1.084       .  S
C611        C612   1.419       .  A
C611       Br619   1.922       .  S
C612        C613   1.411       .  A
C613        C614   1.399       .  A
C613        H616   1.083       .  S
C614       Br620   1.918   1_655  S
C621        C622   1.413       .  A
C621        C626   1.406       .  A
C622        C623   1.404       .  A
C622       Br638   1.918       .  S
C623        C624   1.402       .  A
C623        H627   1.083       .  S
C624        C628   1.476       .  S
C624        C625   1.405       .  A
C625        C626   1.395       .  A
C625       Br637   1.921       .  S
C626        H629   1.084       .  S
C628        C630   1.390       .  A
C628        C634   1.391       .  A
C630        C631   1.404       .  A
C630        H635   1.085       .  S
C631        C632   1.452       .  A
C631       Br927   1.926   1_545  S
C632        C887   1.604       .  S
C632        C633   1.427       .  A
C633        C634   1.393       .  A
C633        H636   1.068       .  S
C634       Br640   1.917       .  S
Br639       C919   1.926       .  S
C641        C642   1.455       .  A
C641        C646   1.420       .  A
C642        C643   1.402       .  A
C642       Br658   1.933       .  S
C643        C644   1.390       .  A
C643        H647   1.084       .  S
C644        C648   1.481       .  S
C644        C645   1.396       .  A
C645        C646   1.397       .  A
C645       Br657   1.919       .  S
C648        C650   1.405       .  A
C648        C654   1.412       .  A
C650        C651   1.402       .  A
C650        H655   1.083       .  S
C651        C652   1.407       .  A
C651       Br659   1.918       .  S
C652        C653   1.398       .  A
C653        C654   1.395       .  A
C653        H656   1.084       .  S
C654       Br660   1.919       .  S
C661        C662   1.446       .  A
C661        C666   1.410       .  A
C662        C663   1.401       .  A
C663        C664   1.391       .  A
C663        H667   1.084       .  S
C664        C668   1.479       .  S
C664        C665   1.396       .  A
C665        C666   1.399       .  A
C665       Br677   1.919       .  S
C666        H669   1.052       .  S
C668        C670   1.400       .  A
C668        C674   1.405       .  A
C670        C671   1.402       .  A
C670        H675   1.084       .  S
C671        C672   1.422       .  A
C671       Br679   1.922       .  S
C672        C673   1.410       .  A
C673        C674   1.395       .  A
C673        H676   1.083       .  S
C674       Br680   1.920       .  S
C681        C682   1.411       .  A
C681        C686   1.405       .  A
C682        C683   1.395       .  A
C682       Br698   1.922       .  S
C683        C684   1.401       .  A
C683        H687   1.084       .  S
C684        C688   1.473       .  S
C684        C685   1.405       .  A
C685        C686   1.398       .  A
C685       Br697   1.912       .  S
C686        H689   1.084       .  S
C688        C690   1.388       .  A
C688        C694   1.390       .  A
C690        C691   1.406       .  A
C690        H695   1.084       .  S
C691        C692   1.453       .  A
C691       Br987   1.923   1_545  S
C692        C693   1.426       .  A
C693        C694   1.391       .  A
C693        H696   1.067       .  S
C694       Br700   1.921       .  S
Br699       C979   1.924       .  S
C701        C702   1.417       .  A
C701        C706   1.406       .  A
C702        C703   1.405       .  A
C702       Br718   1.921       .  S
C703        C704   1.404       .  A
C703        H707   1.084       .  S
C704        C708   1.485       .  S
C704        C705   1.409       .  A
C705        C706   1.397       .  A
C705       Br717   1.922       .  S
C706        H709   1.083       .  S
C708        C710   1.390       .  A
C708        C714   1.392       .  A
C710        C711   1.407   1_655  A
C710        H715   1.085       .  S
C711        C712   1.458   1_455  A
C712        C713   1.433       .  A
C713        C714   1.394       .  A
C713        H716   1.076       .  S
C714       Br720   1.919       .  S
Fe721       O737   2.063       .  S
Fe721       O727   2.085       .  S
Fe721       O734   2.076       .  S
Fe721       O726   2.065       .  S
Fe721       O732   1.953       .  S
Fe722       O725   2.067       .  S
Fe722       O729   2.076       .  S
Fe722       O733   2.062       .  S
Fe722       O738   2.080       .  S
Fe722       O732   1.954       .  S
Fe723       O741   2.073       .  S
Fe723       O728   2.050       .  S
Fe723       O735   2.054       .  S
Fe723       O724   2.078       .  S
Fe723       O732   1.954       .  S
O724        C731   1.271       .  A
O725        C739   1.269       .  A
O726        C731   1.267       .  A
O727        C730   1.274       .  A
O728        C740   1.268       .  A
O729        C742   1.270       .  A
C730        O735   1.268       .  A
C730        C796   1.466       .  S
C731        C845   1.489       .  S
O733        C736   1.268       .  A
O734        C736   1.274       .  A
C736        C816   1.494       .  S
O737        C742   1.270       .  A
O738        C740   1.272       .  A
C739        O741   1.270       .  A
C739        C765   1.481       .  S
C740        C825   1.472       .  S
C742        C756   1.490       .  S
C743        C888   1.755       .  S
C743       C1064   1.604       .  S
C744        C887   1.755   1_566  S
C744        C836   1.604   1_565  S
C745        C746   1.446       .  A
C745        C750   1.431       .  A
C746        C747   1.404       .  A
C747        C748   1.390       .  A
C747        H751   1.084       .  S
C748        C752   1.474       .  S
C748        C749   1.393       .  A
C749        C750   1.394       .  A
C749       Br761   1.919       .  S
C750       H1041   1.073       .  S
C752        C754   1.399       .  A
C752        C758   1.402       .  A
H753       C1038   1.073       .  S
C754        C755   1.399       .  A
C754        H759   1.084       .  S
C755        C756   1.419       .  A
C755       Br763   1.922       .  S
C756        C757   1.411       .  A
C757        C758   1.399       .  A
C757        H760   1.083       .  S
C758       Br764   1.918   1_655  S
C765        C766   1.413       .  A
C765        C770   1.406       .  A
C766        C767   1.404       .  A
C766       Br782   1.918       .  S
C767        C768   1.402       .  A
C767        H771   1.083       .  S
C768        C772   1.476       .  S
C768        C769   1.405       .  A
C769        C770   1.395       .  A
C769       Br781   1.921       .  S
C770        H773   1.084       .  S
C772        C774   1.390       .  A
C772        C778   1.391       .  A
C774        C775   1.404       .  A
C774        H779   1.085       .  S
C775        C776   1.452       .  A
C775      Br1071   1.926   1_545  S
C776       C1031   1.604       .  S
C776        C777   1.427       .  A
C777        C778   1.393       .  A
C777        H780   1.068       .  S
C778       Br784   1.917       .  S
Br783      C1063   1.926       .  S
C785        C786   1.455       .  A
C785        C790   1.420       .  A
C786        C787   1.402       .  A
C786       Br802   1.933       .  S
C787        C788   1.390       .  A
C787        H791   1.084       .  S
C788        C792   1.481       .  S
C788        C789   1.396       .  A
C789        C790   1.397       .  A
C789       Br801   1.919       .  S
C792        C794   1.405       .  A
C792        C798   1.412       .  A
C794        C795   1.402       .  A
C794        H799   1.083       .  S
C795        C796   1.407       .  A
C795       Br803   1.918       .  S
C796        C797   1.398       .  A
C797        C798   1.395       .  A
C797        H800   1.084       .  S
C798       Br804   1.919       .  S
C805        C806   1.446       .  A
C805        C810   1.410       .  A
C806        C807   1.401       .  A
C807        C808   1.391       .  A
C807        H811   1.084       .  S
C808        C812   1.479       .  S
C808        C809   1.396       .  A
C809        C810   1.399       .  A
C809       Br821   1.919       .  S
C810        H813   1.052       .  S
C812        C814   1.400       .  A
C812        C818   1.405       .  A
C814        C815   1.402       .  A
C814        H819   1.084       .  S
C815        C816   1.422       .  A
C815       Br823   1.922       .  S
C816        C817   1.410       .  A
C817        C818   1.395       .  A
C817        H820   1.083       .  S
C818       Br824   1.920       .  S
C825        C826   1.411       .  A
C825        C830   1.405       .  A
C826        C827   1.395       .  A
C826       Br842   1.922       .  S
C827        C828   1.401       .  A
C827        H831   1.084       .  S
C828        C832   1.473       .  S
C828        C829   1.405       .  A
C829        C830   1.398       .  A
C829       Br841   1.912       .  S
C830        H833   1.084       .  S
C832        C834   1.388       .  A
C832        C838   1.390       .  A
C834        C835   1.406       .  A
C834        H839   1.084       .  S
C835        C836   1.453       .  A
C835      Br1131   1.923   1_545  S
C836        C837   1.426       .  A
C837        C838   1.391       .  A
C837        H840   1.067       .  S
C838       Br844   1.921       .  S
Br843      C1123   1.924       .  S
C845        C846   1.417       .  A
C845        C850   1.406       .  A
C846        C847   1.405       .  A
C846       Br862   1.921       .  S
C847        C848   1.404       .  A
C847        H851   1.084       .  S
C848        C852   1.485       .  S
C848        C849   1.409       .  A
C849        C850   1.397       .  A
C849       Br861   1.922       .  S
C850        H853   1.083       .  S
C852        C854   1.390       .  A
C852        C858   1.392       .  A
C854        C855   1.407   1_655  A
C854        H859   1.085       .  S
C855        C856   1.458   1_455  A
C856        C857   1.433       .  A
C857        C858   1.394       .  A
C857        H860   1.076       .  S
C858       Br864   1.919       .  S
Fe865       O881   2.063       .  S
Fe865       O871   2.085       .  S
Fe865       O878   2.076       .  S
Fe865       O870   2.066       .  S
Fe865       O876   1.955       .  S
Fe866       O869   2.068       .  S
Fe866       O873   2.075       .  S
Fe866       O877   2.064       .  S
Fe866       O882   2.081       .  S
Fe866       O876   1.957       .  S
Fe867       O885   2.072       .  S
Fe867       O872   2.050       .  S
Fe867       O879   2.053       .  S
Fe867       O868   2.077       .  S
Fe867       O876   1.955       .  S
O868        C875   1.271       .  A
O869        C883   1.269       .  A
O870        C875   1.267       .  A
O871        C874   1.274       .  A
O872        C884   1.268       .  A
O873        C886   1.270       .  A
C874        O879   1.268       .  A
C874        C940   1.466       .  S
C875        C989   1.490       .  S
O877        C880   1.269       .  A
O878        C880   1.274       .  A
C880        C960   1.495       .  S
O881        C886   1.270       .  A
O882        C884   1.273       .  A
C883        O885   1.270       .  A
C883        C909   1.482       .  S
C884        C969   1.471       .  S
C886        C900   1.491       .  S
C888        C980   1.604       .  S
C889        C890   1.446       .  A
C889        C894   1.431       .  A
C890        C891   1.405       .  A
C891        C892   1.390       .  A
C891        H895   1.084       .  S
C892        C896   1.475       .  S
C892        C893   1.393       .  A
C893        C894   1.394       .  A
C893       Br905   1.919       .  S
C896        C898   1.399       .  A
C896        C902   1.402       .  A
C898        C899   1.399       .  A
C898        H903   1.084       .  S
C899        C900   1.419       .  A
C899       Br907   1.922       .  S
C900        C901   1.411       .  A
C901        C902   1.399       .  A
C901        H904   1.083       .  S
C902       Br908   1.918   1_655  S
C909        C910   1.413       .  A
C909        C914   1.406       .  A
C910        C911   1.404       .  A
C910       Br926   1.918       .  S
C911        C912   1.402       .  A
C911        H915   1.083       .  S
C912        C916   1.477       .  S
C912        C913   1.405       .  A
C913        C914   1.395       .  A
C913       Br925   1.921       .  S
C914        H917   1.084       .  S
C916        C918   1.390       .  A
C916        C922   1.391       .  A
C918        C919   1.404       .  A
C918        H923   1.085       .  S
C919        C920   1.452       .  A
C920        C921   1.427       .  A
C921        C922   1.394       .  A
C921        H924   1.068       .  S
C922       Br928   1.916       .  S
C929        C930   1.455       .  A
C929        C934   1.420       .  A
C930        C931   1.402       .  A
C930       Br946   1.933       .  S
C931        C932   1.390       .  A
C931        H935   1.084       .  S
C932        C936   1.481       .  S
C932        C933   1.397       .  A
C933        C934   1.397       .  A
C933       Br945   1.919       .  S
C936        C938   1.405       .  A
C936        C942   1.412       .  A
C938        C939   1.402       .  A
C938        H943   1.083       .  S
C939        C940   1.407       .  A
C939       Br947   1.918       .  S
C940        C941   1.398       .  A
C941        C942   1.395       .  A
C941        H944   1.084       .  S
C942       Br948   1.920       .  S
C949        C950   1.446       .  A
C949        C954   1.410       .  A
C950        C951   1.401       .  A
C951        C952   1.392       .  A
C951        H955   1.084       .  S
C952        C956   1.481       .  S
C952        C953   1.396       .  A
C953        C954   1.399       .  A
C953       Br965   1.919       .  S
C954        H957   1.052       .  S
C956        C958   1.401       .  A
C956        C962   1.406       .  A
C958        C959   1.402       .  A
C958        H963   1.084       .  S
C959        C960   1.421       .  A
C959       Br967   1.922       .  S
C960        C961   1.410       .  A
C961        C962   1.395       .  A
C961        H964   1.083       .  S
C962       Br968   1.921       .  S
C969        C970   1.411       .  A
C969        C974   1.404       .  A
C970        C971   1.395       .  A
C970       Br986   1.921       .  S
C971        C972   1.401       .  A
C971        H975   1.084       .  S
C972        C976   1.474       .  S
C972        C973   1.405       .  A
C973        C974   1.398       .  A
C973       Br985   1.912       .  S
C974        H977   1.084       .  S
C976        C978   1.388       .  A
C976        C982   1.390       .  A
C978        C979   1.405       .  A
C978        H983   1.084       .  S
C979        C980   1.453       .  A
C980        C981   1.427       .  A
C981        C982   1.392       .  A
C981        H984   1.067       .  S
C982       Br988   1.921       .  S
C989        C990   1.417       .  A
C989        C994   1.406       .  A
C990        C991   1.405       .  A
C990      Br1006   1.921       .  S
C991        C992   1.404       .  A
C991        H995   1.084       .  S
C992        C996   1.486       .  S
C992        C993   1.409       .  A
C993        C994   1.397       .  A
C993      Br1005   1.922       .  S
C994        H997   1.083       .  S
C996        C998   1.390       .  A
C996       C1002   1.393       .  A
C998        C999   1.407   1_655  A
C998       H1003   1.085       .  S
C999       C1000   1.458   1_455  A
C1000      C1001   1.433       .  A
C1001      C1002   1.395       .  A
C1001      H1004   1.075       .  S
C1002     Br1008   1.920       .  S
Fe1009     O1025   2.063       .  S
Fe1009     O1015   2.085       .  S
Fe1009     O1022   2.076       .  S
Fe1009     O1014   2.066       .  S
Fe1009     O1020   1.955       .  S
Fe1010     O1013   2.068       .  S
Fe1010     O1017   2.075       .  S
Fe1010     O1021   2.064       .  S
Fe1010     O1026   2.081       .  S
Fe1010     O1020   1.957       .  S
Fe1011     O1029   2.072       .  S
Fe1011     O1016   2.050       .  S
Fe1011     O1023   2.053       .  S
Fe1011     O1012   2.077       .  S
Fe1011     O1020   1.955       .  S
O1012      C1019   1.271       .  A
O1013      C1027   1.269       .  A
O1014      C1019   1.267       .  A
O1015      C1018   1.274       .  A
O1016      C1028   1.268       .  A
O1017      C1030   1.270       .  A
C1018      O1023   1.268       .  A
C1018      C1084   1.466       .  S
C1019      C1133   1.490       .  S
O1021      C1024   1.269       .  A
O1022      C1024   1.274       .  A
C1024      C1104   1.495       .  S
O1025      C1030   1.270       .  A
O1026      C1028   1.273       .  A
C1027      O1029   1.270       .  A
C1027      C1053   1.482       .  S
C1028      C1113   1.471       .  S
C1030      C1044   1.491       .  S
C1032      C1124   1.604       .  S
C1033      C1034   1.446       .  A
C1033      C1038   1.431       .  A
C1034      C1035   1.405       .  A
C1035      C1036   1.390       .  A
C1035      H1039   1.084       .  S
C1036      C1040   1.475       .  S
C1036      C1037   1.393       .  A
C1037      C1038   1.394       .  A
C1037     Br1049   1.919       .  S
C1040      C1042   1.399       .  A
C1040      C1046   1.402       .  A
C1042      C1043   1.399       .  A
C1042      H1047   1.084       .  S
C1043      C1044   1.419       .  A
C1043     Br1051   1.922       .  S
C1044      C1045   1.411       .  A
C1045      C1046   1.399       .  A
C1045      H1048   1.083       .  S
C1046     Br1052   1.918   1_655  S
C1053      C1054   1.413       .  A
C1053      C1058   1.406       .  A
C1054      C1055   1.404       .  A
C1054     Br1070   1.918       .  S
C1055      C1056   1.402       .  A
C1055      H1059   1.083       .  S
C1056      C1060   1.477       .  S
C1056      C1057   1.405       .  A
C1057      C1058   1.395       .  A
C1057     Br1069   1.921       .  S
C1058      H1061   1.084       .  S
C1060      C1062   1.390       .  A
C1060      C1066   1.391       .  A
C1062      C1063   1.404       .  A
C1062      H1067   1.085       .  S
C1063      C1064   1.452       .  A
C1064      C1065   1.427       .  A
C1065      C1066   1.394       .  A
C1065      H1068   1.068       .  S
C1066     Br1072   1.916       .  S
C1073      C1074   1.455       .  A
C1073      C1078   1.420       .  A
C1074      C1075   1.402       .  A
C1074     Br1090   1.933       .  S
C1075      C1076   1.390       .  A
C1075      H1079   1.084       .  S
C1076      C1080   1.481       .  S
C1076      C1077   1.397       .  A
C1077      C1078   1.397       .  A
C1077     Br1089   1.919       .  S
C1080      C1082   1.405       .  A
C1080      C1086   1.412       .  A
C1082      C1083   1.402       .  A
C1082      H1087   1.083       .  S
C1083      C1084   1.407       .  A
C1083     Br1091   1.918       .  S
C1084      C1085   1.398       .  A
C1085      C1086   1.395       .  A
C1085      H1088   1.084       .  S
C1086     Br1092   1.920       .  S
C1093      C1094   1.446       .  A
C1093      C1098   1.410       .  A
C1094      C1095   1.401       .  A
C1095      C1096   1.392       .  A
C1095      H1099   1.084       .  S
C1096      C1100   1.481       .  S
C1096      C1097   1.396       .  A
C1097      C1098   1.399       .  A
C1097     Br1109   1.919       .  S
C1098      H1101   1.052       .  S
C1100      C1102   1.401       .  A
C1100      C1106   1.406       .  A
C1102      C1103   1.402       .  A
C1102      H1107   1.084       .  S
C1103      C1104   1.421       .  A
C1103     Br1111   1.922       .  S
C1104      C1105   1.410       .  A
C1105      C1106   1.395       .  A
C1105      H1108   1.083       .  S
C1106     Br1112   1.921       .  S
C1113      C1114   1.411       .  A
C1113      C1118   1.404       .  A
C1114      C1115   1.395       .  A
C1114     Br1130   1.921       .  S
C1115      C1116   1.401       .  A
C1115      H1119   1.084       .  S
C1116      C1120   1.474       .  S
C1116      C1117   1.405       .  A
C1117      C1118   1.398       .  A
C1117     Br1129   1.912       .  S
C1118      H1121   1.084       .  S
C1120      C1122   1.388       .  A
C1120      C1126   1.390       .  A
C1122      C1123   1.405       .  A
C1122      H1127   1.084       .  S
C1123      C1124   1.453       .  A
C1124      C1125   1.427       .  A
C1125      C1126   1.392       .  A
C1125      H1128   1.067       .  S
C1126     Br1132   1.921       .  S
C1133      C1134   1.417       .  A
C1133      C1138   1.406       .  A
C1134      C1135   1.405       .  A
C1134     Br1150   1.921       .  S
C1135      C1136   1.404       .  A
C1135      H1139   1.084       .  S
C1136      C1140   1.486       .  S
C1136      C1137   1.409       .  A
C1137      C1138   1.397       .  A
C1137     Br1149   1.922       .  S
C1138      H1141   1.083       .  S
C1140      C1142   1.390       .  A
C1140      C1146   1.393       .  A
C1142      C1143   1.407   1_655  A
C1142      H1147   1.085       .  S
C1143      C1144   1.458   1_455  A
C1144      C1145   1.433       .  A
C1145      C1146   1.395       .  A
C1145      H1148   1.075       .  S
C1146     Br1152   1.920       .  S
