geometry optimzed in LAMMPS
_audit_creation_date              2020-11-30 
_audit_creation_method            'lammps2cif' 
_symmetry_space_group_name_H-M    'P1' 
_symmetry_Int_Tables_number       1 
_symmetry_cell_setting            triclinic 
loop_ 
_symmetry_equiv_pos_as_xyz 
  x,y,z 
_cell_length_a                    31.268155597897277 
_cell_length_b                    31.181179371005182 
_cell_length_c                    31.022343390814868 
_cell_angle_alpha                 89.9490100152319 
_cell_angle_beta                  90.13194263871536 
_cell_angle_gamma                 126.76568523945454 
loop_ 
_atom_site_label 
_atom_site_type_symbol 
_atom_site_fract_x 
_atom_site_fract_y 
_atom_site_fract_z 
_atom_site_charge 
C1          C  0.81208171  0.39834060  0.46127432     0.04630
C2          C  0.78574113  0.38761902  0.50047659    -0.11520
C3          C  0.81175235  0.39343018  0.03910006     0.02130
C4          C  0.86440364  0.40957242  0.03847308    -0.10050
C5          C  0.89290621  0.42273454  0.99921405     0.04620
C6          C  0.86551250  0.41733572  0.46073433    -0.09470
H7          H  0.74426675  0.37262655  0.00084459     0.10220
H8          H  0.88174574  0.41046250  0.06889301     0.07750
H9          H  0.88418714  0.42677188  0.42953526     0.07590
C10         C  0.45103424  0.04588893  0.46479413     0.04630
C11         C  0.44786817  0.06623771  0.50385494    -0.11520
C12         C  0.43870979  0.03898141  0.04238563     0.02130
C13         C  0.42471316  0.98718610  0.04156501    -0.10050
C14         C  0.42462717  0.96366954  0.00243942     0.04620
C15         C  0.44041793  0.99519481  0.46452319    -0.09470
H16         H  0.45666413  0.10548685  0.50509422     0.10220
H17         H  0.41633956  0.96736147  0.07220937     0.07750
H18         H  0.44688176  0.98201135  0.43477831     0.07590
C19         C  0.48724418  0.39759000  0.46127938     0.04630
C20         C  0.46569089  0.42616169  0.46174791    -0.11520
C21         C  0.44597052  0.43269274  0.50028808     0.02130
C22         C  0.45057472  0.41115544  0.03869717    -0.10050
C23         C  0.47484448  0.38520515  0.03881833     0.04620
C24         C  0.49219221  0.37784842  0.49996226    -0.09470
H25         H  0.46537375  0.44354104  0.43174200     0.10220
H26         H  0.43468269  0.41311340  0.06886422     0.07750
H27         H  0.50982556  0.35670924  0.49984819     0.07590
O28         O  0.64473219  0.27719027  0.30560468    -0.83850
O29         O  0.54972038  0.18085660  0.28615172    -0.80890
C30         C  0.51999195  0.18056783  0.31385416     0.99610
O31         O  0.50558271  0.21030455  0.30949528    -0.80930
O32         O  0.50876278  0.29703182  0.28623875    -0.83570
C33         C  0.54493897  0.33392822  0.31045189     1.04140
O34         O  0.59307409  0.35389546  0.30351698    -0.76330
O35         O  0.68021279  0.35882651  0.28310794    -0.76520
C36         C  0.67857338  0.32709062  0.30991433     1.04090
O37         O  0.67185792  0.29747307  0.21577177    -0.83840
O38         O  0.57209529  0.20792193  0.19655234    -0.80910
C39         C  0.52214708  0.17630545  0.19241215     0.99630
O40         O  0.49247473  0.17730289  0.21962404    -0.80940
O41         O  0.50607577  0.26926747  0.19712806    -0.83540
C42         C  0.52989809  0.31828445  0.18961387     1.04110
O43         O  0.56836666  0.35325490  0.21348735    -0.76360
O44         O  0.65162088  0.34968790  0.19280215    -0.76510
C45         C  0.67755703  0.33090813  0.18869608     1.04070
Cr46       Cr  0.60745372  0.24340974  0.25101002     1.93740
Cr47       Cr  0.50840723  0.24116618  0.25305059     1.93210
Cr48       Cr  0.62015944  0.34864390  0.24828488     1.39100
O49         O  0.57870163  0.27789932  0.25070423    -1.21600
C50         C  0.03260677  0.46844314  0.03536876     0.04630
C51         C  0.98084035  0.45506929  0.03614886    -0.11520
C52         C  0.94955631  0.43976955  0.99812841     0.02130
C53         C  0.97377134  0.44208691  0.45879416    -0.10050
C54         C  0.02625545  0.45838818  0.45743523     0.04620
C55         C  0.05420105  0.46855629  0.99576616    -0.09470
H56         H  0.96636493  0.45853346  0.06649009     0.10220
H57         H  0.95323494  0.43198426  0.42833280     0.07750
H58         H  0.09403770  0.47909671  0.99431483     0.07590
C59         C  0.38620700  0.82676735  0.03861265     0.04650
C60         C  0.40439098  0.88013687  0.03964517    -0.11520
C61         C  0.41004566  0.90782332  0.00125197     0.02130
C62         C  0.39878797  0.88011569  0.46168040    -0.10050
C63         C  0.38414481  0.82789402  0.46047906     0.04620
C64         C  0.37763241  0.80147418  0.99903860    -0.09470
H65         H  0.41177002  0.89815569  0.07101717     0.10220
H66         H  0.40004929  0.89776892  0.43133558     0.07750
H67         H  0.36330745  0.76008180  0.99834440     0.07590
C68         C  0.38451907  0.50142544  0.03937997     0.04630
C69         C  0.41260764  0.47946094  0.03909077    -0.11520
C70         C  0.42005637  0.46078325  0.00029052     0.02130
C71         C  0.40064612  0.46769746  0.46161170    -0.10050
C72         C  0.37560834  0.49290566  0.46157256     0.04620
C73         C  0.36721115  0.50906281  0.00065013    -0.09470
H74         H  0.42734419  0.47647275  0.06959371     0.10220
H75         H  0.40302650  0.45234587  0.43125194     0.07750
H76         H  0.34676923  0.52742013  0.00107230     0.07590
O77         O  0.26186062  0.65685453  0.19488866    -0.83850
O78         O  0.16629808  0.56199640  0.21471720    -0.80890
C79         C  0.16517267  0.53133870  0.18729306     0.99610
O80         O  0.19424218  0.51619372  0.19181774    -0.80930
O81         O  0.28118620  0.52007176  0.21397908    -0.83570
C82         C  0.31770241  0.55549999  0.18931011     1.04140
O83         O  0.33844504  0.60422103  0.19525325    -0.76330
O84         O  0.34371496  0.69269626  0.21582211    -0.76520
C85         C  0.31140018  0.69092546  0.18967725     1.04090
O86         O  0.28415329  0.68502114  0.28457528    -0.83840
O87         O  0.19341451  0.58483670  0.30450675    -0.80910
C88         C  0.16214319  0.53462968  0.30824508     0.99630
O89         O  0.16409858  0.50490485  0.28178494    -0.80940
O90         O  0.25665361  0.51985256  0.30340490    -0.83540
C91         C  0.30577831  0.54395025  0.31011865     1.04110
O92         O  0.33985895  0.58140561  0.28520351    -0.76360
O93         O  0.33659355  0.66470498  0.30596290    -0.76510
C94         C  0.31874503  0.69140811  0.31068388     1.04070
Cr95       Cr  0.22910897  0.62004210  0.24972700     1.93740
Cr96       Cr  0.22680292  0.52054781  0.24781127     1.93210
Cr97       Cr  0.33423234  0.63259959  0.25049960     1.39100
O98         O  0.26347440  0.59106904  0.24936185    -1.21600
C99         C  0.30419965  0.48516188  0.41774412     0.25100
C100        C  0.35684531  0.50167358  0.42095567    -0.23010
C101        C  0.39212846  0.52972383  0.38643604     0.20000
C102        C  0.37553593  0.54283839  0.35000322     0.25040
C103        C  0.32320909  0.52791507  0.34740507    -0.22960
C104        C  0.28759599  0.49824220  0.38157282     0.19940
F105        F  0.23697313  0.48329212  0.38092833    -0.12910
F106        F  0.26875412  0.45660571  0.45000992    -0.15280
F107        F  0.41086963  0.57045143  0.31750226    -0.15280
F108        F  0.44333315  0.54634153  0.38872374    -0.12910
C109        C  0.29878713  0.49376121  0.12877832     0.25100
C110        C  0.33603339  0.53959660  0.15314125    -0.23010
C111        C  0.39031258  0.57111424  0.14140824     0.20000
C112        C  0.40680824  0.55748385  0.10535947     0.25040
C113        C  0.36911980  0.51288320  0.08020971    -0.22960
C114        C  0.31517962  0.48081893  0.09240715     0.19940
F115        F  0.27820784  0.43746596  0.06842422    -0.12910
F116        F  0.24607978  0.46299451  0.13889058    -0.15280
F117        F  0.45914645  0.58876453  0.09410477    -0.15280
F118        F  0.42728920  0.61503023  0.16485149    -0.12910
C119        C  0.33048799  0.78894707  0.39255190     0.25100
C120        C  0.37171516  0.79861612  0.41928530    -0.23010
C121        C  0.39794270  0.77607513  0.40851717     0.20000
C122        C  0.38184184  0.74257248  0.37263433     0.25040
C123        C  0.33872571  0.73057038  0.34673740    -0.22960
C124        C  0.31404615  0.75523154  0.35666834     0.19940
F125        F  0.27263884  0.74534532  0.33269194    -0.12910
F126        F  0.30419648  0.80991636  0.40247887    -0.15280
F127        F  0.40822764  0.72142157  0.36377282    -0.15280
F128        F  0.43892528  0.78606446  0.43322578    -0.12910
C129        C  0.29539305  0.72044289  0.11999598     0.25100
C130        C  0.33121396  0.72858034  0.15254796    -0.23010
C131        C  0.38575556  0.77202115  0.14826790     0.20000
C132        C  0.40395311  0.80506220  0.11168546     0.25040
C133        C  0.36823482  0.79452598  0.07851299    -0.22960
C134        C  0.31388049  0.75245837  0.08325662     0.19940
F135        F  0.27834071  0.74265423  0.05219112    -0.12910
F136        F  0.24214514  0.68134755  0.12329967    -0.15280
F137        F  0.45653447  0.84651782  0.10818062    -0.15280
F138        F  0.42150082  0.78278177  0.17942329    -0.12910
C139        C  0.15276409  0.54190839  0.11033750     0.25100
C140        C  0.13069661  0.51451792  0.14920196    -0.23010
C141        C  0.07605960  0.47222093  0.15130022     0.20000
C142        C  0.04385758  0.45693482  0.11444920     0.25040
C143        C  0.06572064  0.48506242  0.07530413    -0.22960
C144        C  0.12047560  0.52861028  0.07415437     0.19940
F145        F  0.14283061  0.55919715  0.03822564    -0.12910
F146        F  0.20588062  0.58172538  0.10744834    -0.15280
F147        F  0.99182923  0.41377763  0.11682498    -0.15280
F148        F  0.05428495  0.44499952  0.18874527    -0.12910
C149        C  0.11144211  0.46621414  0.36652933     0.25100
C150        C  0.12249737  0.51067580  0.34341586    -0.23010
C151        C  0.09741066  0.53402227  0.35568352     0.20000
C152        C  0.06345111  0.51457107  0.39132125     0.25040
C153        C  0.05487865  0.47219785  0.41592613    -0.22960
C154        C  0.07858274  0.44770817  0.40300739     0.19940
F155        F  0.07076248  0.40667169  0.42627940    -0.12910
F156        F  0.13450897  0.44239059  0.35510209    -0.15280
F157        F  0.04118401  0.53908183  0.40324113    -0.15280
F158        F  0.10614369  0.57605254  0.33331960    -0.12910
C159        C  0.52657211  0.38676707  0.14986142     0.25100
C160        C  0.51224542  0.33454985  0.15266021    -0.23010
C161        C  0.48151396  0.29797213  0.11911046     0.20000
C162        C  0.46741926  0.31388298  0.08304121     0.25040
C163        C  0.48361435  0.36657248  0.07954727    -0.22960
C164        C  0.51226552  0.40254136  0.11368797     0.19940
F165        F  0.52854746  0.45377011  0.11116267    -0.12910
F166        F  0.55482256  0.42283808  0.18192360    -0.15280
F167        F  0.43838902  0.27784946  0.05110403    -0.15280
F168        F  0.46654010  0.24713777  0.12026776    -0.12910
C169        C  0.55450987  0.39821626  0.41733649     0.25100
C170        C  0.50392469  0.38696357  0.42043708    -0.23010
C171        C  0.46789749  0.36123939  0.38583076     0.20000
C172        C  0.48138718  0.34484282  0.34959976     0.25040
C173        C  0.53129512  0.35408314  0.34727051    -0.22960
C174        C  0.56806740  0.38193647  0.38130618     0.19940
F175        F  0.61663737  0.39177529  0.38072620    -0.12910
F176        F  0.59070641  0.42440318  0.44968932    -0.15280
F177        F  0.44535034  0.31949443  0.31706120    -0.15280
F178        F  0.41865084  0.34973758  0.38794017    -0.12910
C179        C  0.51141864  0.13519103  0.42780571     0.25100
C180        C  0.46950430  0.07978738  0.42523581    -0.23010
C181        C  0.44534423  0.05774521  0.38478071     0.20000
C182        C  0.46240173  0.09044218  0.34815632     0.25040
C183        C  0.50257130  0.14565993  0.35162737    -0.22960
C184        C  0.52684005  0.16782400  0.39154435     0.19940
F185        F  0.56631542  0.22116744  0.39521369    -0.12910
F186        F  0.53862230  0.15785783  0.46517237    -0.15280
F187        F  0.43895117  0.06849125  0.30946017    -0.15280
F188        F  0.40430052  0.00495545  0.38078143    -0.12910
C189        C  0.42307488  0.06466760  0.11459001     0.25100
C190        C  0.45781961  0.07034610  0.08265540    -0.23010
C191        C  0.51297357  0.10864488  0.08785113     0.20000
C192        C  0.53348394  0.14213912  0.12361921     0.25040
C193        C  0.49916722  0.13814501  0.15555433    -0.22960
C194        C  0.44355309  0.09847588  0.15084871     0.19940
F195        F  0.40897264  0.09264337  0.18093759    -0.12910
F196        F  0.36954138  0.02742203  0.11015216    -0.15280
F197        F  0.58724185  0.17927732  0.12615075    -0.15280
F198        F  0.54727265  0.11403327  0.05761502    -0.12910
C199        C  0.76852083  0.41500787  0.40253411     0.25100
C200        C  0.78162665  0.38302433  0.42067703    -0.23010
C201        C  0.76338564  0.33432505  0.40105080     0.20000
C202        C  0.73091333  0.31678571  0.36447733     0.25040
C203        C  0.71660584  0.34808765  0.34648736    -0.22960
C204        C  0.73661615  0.39794416  0.36540120     0.19940
F205        F  0.72352160  0.42910849  0.34908797    -0.12910
F206        F  0.78603361  0.46231010  0.42115910    -0.15280
F207        F  0.71339413  0.26902775  0.34672905    -0.15280
F208        F  0.77588955  0.30299312  0.41816291    -0.12910
C209        C  0.75544477  0.32765214  0.09691842     0.25100
C210        C  0.78200762  0.37934978  0.07987052    -0.23010
C211        C  0.77614203  0.41594759  0.09972236     0.20000
C212        C  0.74285404  0.40057182  0.13561037     0.25040
C213        C  0.71517220  0.34833622  0.15231904    -0.22960
C214        C  0.72257127  0.31231659  0.13306204     0.19940
F215        F  0.69611874  0.26148305  0.14799572    -0.12910
F216        F  0.75987530  0.29146035  0.07752503    -0.15280
F217        F  0.73793003  0.43683670  0.15416027    -0.15280
F218        F  0.80203884  0.46631176  0.08382776    -0.12910
C219        C  0.81208117  0.39834281  0.96127420     0.04630
C220        C  0.78574041  0.38762121  0.00047644    -0.11520
C221        C  0.81175319  0.39342797  0.53910007     0.02130
C222        C  0.86440447  0.40957029  0.53847298    -0.10050
C223        C  0.89290694  0.42273261  0.49921390     0.04620
C224        C  0.86551195  0.41733782  0.96073442    -0.09470
H225        H  0.74426748  0.37262442  0.50084489     0.10220
H226        H  0.88174665  0.41046037  0.56889286     0.07750
H227        H  0.88418666  0.42677391  0.92953540     0.07590
C228        C  0.45103620  0.04588869  0.96479443     0.04630
C229        C  0.44786968  0.06623729  0.00385512    -0.11520
C230        C  0.43870834  0.03898184  0.54238549     0.02130
C231        C  0.42471171  0.98718651  0.54156483    -0.10050
C232        C  0.42462549  0.96366982  0.50243921     0.04620
C233        C  0.44041997  0.99519464  0.96452347    -0.09470
H234        H  0.45666557  0.10548640  0.00509436     0.10220
H235        H  0.41633835  0.96736199  0.57220920     0.07750
H236        H  0.44688413  0.98201132  0.93477866     0.07590
C237        C  0.48726018  0.39760639  0.96127765     0.04630
C238        C  0.46570415  0.42617542  0.96174672    -0.11520
C239        C  0.44598299  0.43270477  0.00028720     0.02130
C240        C  0.45056041  0.41114258  0.53869833    -0.10050
C241        C  0.47482737  0.38518962  0.53882002     0.04620
C242        C  0.49221111  0.37786663  0.99996030    -0.09470
H243        H  0.46538477  0.44355331  0.93174075     0.10220
H244        H  0.43466989  0.41310268  0.56886542     0.07750
H245        H  0.50984662  0.35672952  0.99984556     0.07590
O246        O  0.64473356  0.27719119  0.80560397    -0.83850
O247        O  0.54972175  0.18085652  0.78615211    -0.80890
C248        C  0.51999465  0.18056847  0.81385544     0.99610
O249        O  0.50558613  0.21030584  0.80949743    -0.80930
O250        O  0.50876457  0.29703208  0.78624077    -0.83570
C251        C  0.54494246  0.33393119  0.81045127     1.04140
O252        O  0.59307710  0.35389825  0.80351446    -0.76330
O253        O  0.68021403  0.35882689  0.78310553    -0.76520
C254        C  0.67857483  0.32709171  0.80991273     1.04090
O255        O  0.67185815  0.29747206  0.71577117    -0.83840
O256        O  0.57209484  0.20792087  0.69655282    -0.80910
C257        C  0.52214653  0.17630443  0.69241325     0.99630
O258        O  0.49247468  0.17730173  0.71962595    -0.80940
O259        O  0.50607279  0.26926437  0.69713033    -0.83540
C260        C  0.52989471  0.31828080  0.68961429     1.04110
O261        O  0.56836584  0.35325277  0.71348516    -0.76360
O262        O  0.65161932  0.34968466  0.69279964    -0.76510
C263        C  0.67755641  0.33090585  0.68869458     1.04070
Cr264      Cr  0.60745433  0.24340941  0.75100991     1.93740
Cr265      Cr  0.50840780  0.24116551  0.75305261     1.93210
Cr266      Cr  0.62015990  0.34864332  0.74828255     1.39100
O267        O  0.57870210  0.27789887  0.75070408    -1.21600
C268        C  0.03260782  0.46844253  0.53536858     0.04630
C269        C  0.98084129  0.45506835  0.53614861    -0.11520
C270        C  0.94955715  0.43976810  0.49812821     0.02130
C271        C  0.97377051  0.44208836  0.95879432    -0.10050
C272        C  0.02625444  0.45838908  0.95743537     0.04620
C273        C  0.05420224  0.46855581  0.49576600    -0.09470
H274        H  0.96636584  0.45853265  0.56648978     0.10220
H275        H  0.95323424  0.43198605  0.92833292     0.07750
H276        H  0.09403903  0.47909658  0.49431466     0.07590
C277        C  0.38620582  0.82676772  0.53861270     0.04650
C278        C  0.40438942  0.88013715  0.53964513    -0.11520
C279        C  0.41004416  0.90782359  0.50125185     0.02130
C280        C  0.39878916  0.88011545  0.96168049    -0.10050
C281        C  0.38414576  0.82789372  0.96047906     0.04620
C282        C  0.37763150  0.80147459  0.49903867    -0.09470
H283        H  0.41176819  0.89815591  0.57101713     0.10220
H284        H  0.40005040  0.89776876  0.93133573     0.07750
H285        H  0.36330679  0.76008229  0.49834453     0.07590
C286        C  0.38451615  0.50142290  0.53938012     0.04630
C287        C  0.41260112  0.47945462  0.53909116    -0.11520
C288        C  0.42004789  0.46077513  0.50029104     0.02130
C289        C  0.40065281  0.46770358  0.96161131    -0.10050
C290        C  0.37561149  0.49290821  0.96157237     0.04620
C291        C  0.36721003  0.50906224  0.50065022    -0.09470
H292        H  0.42733636  0.47646498  0.56959424     0.10220
H293        H  0.40303466  0.45235328  0.93125142     0.07750
H294        H  0.34677064  0.52742217  0.50107230     0.07590
O295        O  0.26186035  0.65685435  0.69488872    -0.83850
O296        O  0.16629796  0.56199630  0.71471750    -0.80890
C297        C  0.16517254  0.53133841  0.68729356     0.99610
O298        O  0.19424181  0.51619320  0.69181853    -0.80930
O299        O  0.28118591  0.52007149  0.71397973    -0.83570
C300        C  0.31770166  0.55549945  0.68931031     1.04140
O301        O  0.33844422  0.60422054  0.69525309    -0.76330
O302        O  0.34371475  0.69269615  0.71582190    -0.76520
C303        C  0.31139987  0.69092534  0.68967717     1.04090
O304        O  0.28415335  0.68502118  0.78457536    -0.83840
O305        O  0.19341442  0.58483697  0.80450706    -0.80910
C306        C  0.16214308  0.53462997  0.80824563     0.99630
O307        O  0.16409856  0.50490497  0.78178576    -0.80940
O308        O  0.25665391  0.51985299  0.80340560    -0.83540
C309        C  0.30577868  0.54395048  0.81011883     1.04110
O310        O  0.33985897  0.58140561  0.78520334    -0.76360
O311        O  0.33659383  0.66470511  0.80596267    -0.76510
C312        C  0.31874529  0.69140820  0.81068377     1.04070
Cr313      Cr  0.22910886  0.62004210  0.74972720     1.93740
Cr314      Cr  0.22680280  0.52054775  0.74781200     1.93210
Cr315      Cr  0.33423217  0.63259948  0.75049945     1.39100
O316        O  0.26347424  0.59106899  0.74936214    -1.21600
C317        C  0.30420103  0.48516018  0.91774313     0.25100
C318        C  0.35684779  0.50167520  0.92095541    -0.23010
C319        C  0.39213130  0.52972788  0.88643649     0.20000
C320        C  0.37553804  0.54284177  0.85000376     0.25040
C321        C  0.32321006  0.52791539  0.84740495    -0.22960
C322        C  0.28759655  0.49823975  0.88157185     0.19940
F323        F  0.23697236  0.48328600  0.88092657    -0.12910
F324        F  0.26875520  0.45660152  0.95000819    -0.15280
F325        F  0.41087227  0.57045739  0.81750362    -0.15280
F326        F  0.44333702  0.54634869  0.88872486    -0.12910
C327        C  0.29878557  0.49375994  0.62877895     0.25100
C328        C  0.33603215  0.53959571  0.65314137    -0.23010
C329        C  0.39031115  0.57111336  0.64140778     0.20000
C330        C  0.40680630  0.55748254  0.60535893     0.25040
C331        C  0.36911753  0.51288143  0.58020977    -0.22960
C332        C  0.31517755  0.48081721  0.59240774     0.19940
F333        F  0.27820548  0.43746389  0.56842525    -0.12910
F334        F  0.24607838  0.46299327  0.63889175    -0.15280
F335        F  0.45914432  0.58876310  0.59410368    -0.15280
F336        F  0.42728807  0.61502971  0.66485053    -0.12910
C337        C  0.33048856  0.78894693  0.89255213     0.25100
C338        C  0.37171589  0.79861593  0.91928528    -0.23010
C339        C  0.39794347  0.77607508  0.90851686     0.20000
C340        C  0.38184248  0.74257256  0.87263394     0.25040
C341        C  0.33872616  0.73057045  0.84673727    -0.22960
C342        C  0.31404658  0.75523150  0.85666849     0.19940
F343        F  0.27263910  0.74534525  0.83269233    -0.12910
F344        F  0.30419708  0.80991615  0.90247940    -0.15280
F345        F  0.40822831  0.72142175  0.86377213    -0.15280
F346        F  0.43892621  0.78606442  0.93322525    -0.12910
C347        C  0.29539239  0.72044281  0.61999604     0.25100
C348        C  0.33121345  0.72858030  0.65254790    -0.23010
C349        C  0.38575498  0.77202131  0.64826777     0.20000
C350        C  0.40395229  0.80506254  0.61168542     0.25040
C351        C  0.36823385  0.79452634  0.57851308    -0.22960
C352        C  0.31387960  0.75245848  0.58325676     0.19940
F353        F  0.27833968  0.74265423  0.55219137    -0.12910
F354        F  0.24214455  0.68134722  0.62329974    -0.15280
F355        F  0.45653360  0.84651831  0.60818053    -0.15280
F356        F  0.42150040  0.78278195  0.67942302    -0.12910
C357        C  0.15276459  0.54190812  0.61033787     0.25100
C358        C  0.13069679  0.51451768  0.64920230    -0.23010
C359        C  0.07605984  0.47222053  0.65130031     0.20000
C360        C  0.04385816  0.45693427  0.61444909     0.25040
C361        C  0.06572149  0.48506186  0.57530404    -0.22960
C362        C  0.12047641  0.52860983  0.57415451     0.19940
F363        F  0.14283167  0.55919666  0.53822579    -0.12910
F364        F  0.20588112  0.58172521  0.60744897    -0.15280
F365        F  0.99182986  0.41377693  0.61682466    -0.15280
F366        F  0.05428494  0.44499913  0.68874533    -0.12910
C367        C  0.11144162  0.46621469  0.86653004     0.25100
C368        C  0.12249709  0.51067630  0.84341634    -0.23010
C369        C  0.09741031  0.53402282  0.85568363     0.20000
C370        C  0.06345045  0.51457171  0.89132119     0.25040
C371        C  0.05487773  0.47219851  0.91592629    -0.22960
C372        C  0.07858191  0.44770878  0.90300790     0.19940
F373        F  0.07076142  0.40667231  0.92628009    -0.12910
F374        F  0.13450861  0.44239115  0.85510324    -0.15280
F375        F  0.04118336  0.53908258  0.90324072    -0.15280
F376        F  0.10614353  0.57605306  0.83331950    -0.12910
C377        C  0.52656784  0.38676159  0.64985944     0.25100
C378        C  0.51223818  0.33454343  0.65266144    -0.23010
C379        C  0.48149939  0.29796170  0.61911570     0.20000
C380        C  0.46740104  0.31386964  0.58304689     0.25040
C381        C  0.48359935  0.36655992  0.57954954    -0.22960
C382        C  0.51225734  0.40253281  0.61368653     0.19940
F383        F  0.52854239  0.45376243  0.61115771    -0.12910
F384        F  0.55482527  0.42283657  0.68191774    -0.15280
F385        F  0.43836454  0.27783269  0.55111322    -0.15280
F386        F  0.46652173  0.24712602  0.62027631    -0.12910
C387        C  0.55452390  0.39823390  0.91733083     0.25100
C388        C  0.50393766  0.38697800  0.92043472    -0.23010
C389        C  0.46790601  0.36124710  0.88583192     0.20000
C390        C  0.48139244  0.34484668  0.84960141     0.25040
C391        C  0.53130155  0.35408993  0.84726910    -0.22960
C392        C  0.56807833  0.38195051  0.88130094     0.19940
F393        F  0.61664992  0.39179310  0.88071786    -0.12910
F394        F  0.59072432  0.42442702  0.94968029    -0.15280
F395        F  0.44535118  0.31949144  0.81706654    -0.15280
F396        F  0.41865823  0.34974220  0.88794470    -0.12910
C397        C  0.51142122  0.13519088  0.92780657     0.25100
C398        C  0.46950674  0.07978732  0.92523632    -0.23010
C399        C  0.44534687  0.05774544  0.88478115     0.20000
C400        C  0.46240465  0.09044266  0.84815696     0.25040
C401        C  0.50257426  0.14566035  0.85162835    -0.22960
C402        C  0.52684288  0.16782413  0.89154541     0.19940
F403        F  0.56631828  0.22116754  0.89521501    -0.12910
F404        F  0.53862462  0.15785731  0.96517339    -0.15280
F405        F  0.43895419  0.06849211  0.80946070    -0.15280
F406        F  0.40430304  0.00495574  0.88078164    -0.12910
C407        C  0.42307364  0.06466783  0.61459026     0.25100
C408        C  0.45781823  0.07034648  0.58265539    -0.23010
C409        C  0.51297219  0.10864497  0.58785119     0.20000
C410        C  0.53348274  0.14213865  0.62361962     0.25040
C411        C  0.49916621  0.13814436  0.65555507    -0.22960
C412        C  0.44355204  0.09847564  0.65084931     0.19940
F413        F  0.40897174  0.09264306  0.68093839    -0.12910
F414        F  0.36954010  0.02742252  0.61015238    -0.15280
F415        F  0.58724071  0.17927646  0.62615118    -0.15280
F416        F  0.54727117  0.11403351  0.55761490    -0.12910
C417        C  0.76852130  0.41500991  0.90253270     0.25100
C418        C  0.78162640  0.38302622  0.92067666    -0.23010
C419        C  0.76338587  0.33432695  0.90105069     0.20000
C420        C  0.73091448  0.31678759  0.86447665     0.25040
C421        C  0.71660741  0.34808949  0.84648578    -0.22960
C422        C  0.73661761  0.39794621  0.86539915     0.19940
F423        F  0.72352397  0.42911080  0.84908478    -0.12910
F424        F  0.78603391  0.46231232  0.92115723    -0.15280
F425        F  0.71339571  0.26902960  0.84672873    -0.15280
F426        F  0.77588945  0.30299506  0.91816353    -0.12910
C427        C  0.75544579  0.32765014  0.59691845     0.25100
C428        C  0.78200858  0.37934772  0.57987046    -0.23010
C429        C  0.77614238  0.41594536  0.59972175     0.20000
C430        C  0.74285377  0.40056945  0.63560927     0.25040
C431        C  0.71517193  0.34833388  0.65231796    -0.22960
C432        C  0.72257163  0.31231444  0.63306162     0.19940
F433        F  0.69611906  0.26148094  0.64799542    -0.12910
F434        F  0.75987688  0.29145852  0.57752548    -0.15280
F435        F  0.73792911  0.43683411  0.65415870    -0.15280
F436        F  0.80203911  0.46630944  0.58382697    -0.12910
loop_ 
_geom_bond_atom_site_label_1 
_geom_bond_atom_site_label_2 
_geom_bond_distance 
_geom_bond_site_symmetry_2 
_ccdc_geom_bond_type 
C1            C2   1.394       .  A
C1            C6   1.399       .  A
C1          C200   1.474       .  S
C2          C221   1.396       .  A
C2          H225   1.084       .  S
C3            C4   1.404       .  A
C3          C220   1.396       .  A
C3          C210   1.474       .  S
C4            C5   1.419   1_554  A
C4            H8   1.079       .  S
C5          C224   1.418       .  A
C5           C52   1.515       .  S
C6          C223   1.418       .  A
C6            H9   1.077       .  S
H7          C220   1.084       .  S
C10          C11   1.399       .  A
C10          C15   1.407   1_545  A
C10         C180   1.492       .  S
C11         C230   1.393       .  A
C11          H16   1.083       .  S
C12          C13   1.398   1_545  A
C12         C229   1.393       .  A
C12         C190   1.474       .  S
C13          C14   1.418       .  A
C13          H17   1.077       .  S
C14         C233   1.419   1_554  A
C14          C61   1.514       .  S
C15         C232   1.419       .  A
C15          H18   1.078       .  S
C19          C20   1.402       .  A
C19          C24   1.398       .  A
C19         C170   1.483       .  S
C20          C21   1.416       .  A
C20          H25   1.080       .  S
C21         C240   1.416       .  A
C21         C288   1.508       .  S
C22          C23   1.402       .  A
C22         C239   1.416       .  A
C22          H26   1.079       .  S
C23         C242   1.397   1_554  A
C23         C163   1.482       .  S
C24         C241   1.397       .  A
C24          H27   1.083       .  S
O28         Cr46   1.965       .  S
O28          C36   1.260       .  A
O29         Cr46   2.010       .  S
O29          C30   1.263       .  A
C30         C183   1.465       .  S
C30          O31   1.257       .  A
O31         Cr47   1.974       .  S
O32         Cr47   2.019       .  S
O32          C33   1.268       .  A
C33         C173   1.485       .  S
C33          O34   1.256       .  A
O34         Cr48   1.963       .  S
O35         Cr48   2.018       .  S
O35          C36   1.269       .  A
C36         C203   1.481       .  S
O37         Cr46   2.009       .  S
O37          C45   1.265       .  A
O38         Cr46   1.957       .  S
O38          C39   1.258       .  A
C39         C193   1.488       .  S
C39          O40   1.270       .  A
O40         Cr47   2.025       .  S
O41         Cr47   1.964       .  S
O41          C42   1.258       .  A
C42         C160   1.486       .  S
C42          O43   1.269       .  A
O43         Cr48   2.020       .  S
O44         Cr48   1.975       .  S
O44          C45   1.259       .  A
C45         C213   1.481       .  S
Cr46         O49   1.767       .  S
Cr47         O49   1.771       .  S
Cr48         O49   1.769       .  S
C50          C51   1.409   1_455  A
C50          C55   1.402   1_554  A
C50         C143   1.493       .  S
C51          C52   1.419   1_554  A
C51          H56   1.079       .  S
C52         C271   1.416       .  A
C53          C54   1.398   1_655  A
C53         C270   1.416       .  A
C53          H57   1.077       .  S
C54         C273   1.394       .  A
C54         C153   1.479       .  S
C55         C272   1.394       .  A
C55          H58   1.082       .  S
C59          C60   1.400       .  A
C59          C64   1.396   1_554  A
C59         C133   1.478       .  S
C60          C61   1.418       .  A
C60          H65   1.077       .  S
C61         C280   1.419   1_554  A
C62          C63   1.404       .  A
C62         C279   1.419       .  A
C62          H66   1.079       .  S
C63         C282   1.396       .  A
C63         C120   1.481       .  S
C64         C281   1.396       .  A
C64          H67   1.084       .  S
C68          C69   1.400       .  A
C68          C73   1.394       .  A
C68         C113   1.474       .  S
C69          C70   1.417       .  A
C69          H74   1.080       .  S
C70         C289   1.417   1_554  A
C70         C239   1.508       .  S
C71          C72   1.403       .  A
C71         C288   1.417       .  A
C71          H75   1.080       .  S
C72         C291   1.398       .  A
C72         C100   1.481       .  S
C73         C290   1.398   1_554  A
C73          H76   1.084       .  S
O77         Cr95   1.964       .  S
O77          C85   1.259       .  A
O78         Cr95   2.013       .  S
O78          C79   1.265       .  A
C79         C140   1.467       .  S
C79          O80   1.258       .  A
O80         Cr96   1.975       .  S
O81         Cr96   2.008       .  S
O81          C82   1.266       .  A
C82         C110   1.476       .  S
C82          O83   1.258       .  A
O83         Cr97   1.970       .  S
O84         Cr97   2.022       .  S
O84          C85   1.269       .  A
C85         C130   1.490       .  S
O86         Cr95   2.014       .  S
O86          C94   1.266       .  A
O87         Cr95   1.969       .  S
O87          C88   1.260       .  A
C88         C150   1.477       .  S
C88          O89   1.267       .  A
O89         Cr96   2.014       .  S
O90         Cr96   1.965       .  S
O90          C91   1.259       .  A
C91         C103   1.486       .  S
C91          O92   1.269       .  A
O92         Cr97   2.018       .  S
O93         Cr97   1.970       .  S
O93          C94   1.258       .  A
C94         C123   1.489       .  S
Cr95         O98   1.770       .  S
Cr96         O98   1.770       .  S
Cr97         O98   1.773       .  S
C99         C100   1.403       .  A
C99         C104   1.395       .  A
C99         F106   1.358       .  S
C100        C101   1.406       .  A
C101        C102   1.402       .  A
C101        F108   1.358       .  S
C102        C103   1.410       .  A
C102        F107   1.358       .  S
C103        C104   1.411       .  A
C104        F105   1.356       .  S
C109        C110   1.406       .  A
C109        C114   1.396       .  A
C109        F116   1.358       .  S
C110        C111   1.409       .  A
C111        C112   1.401       .  A
C111        F118   1.358       .  S
C112        C113   1.403       .  A
C112        F117   1.357       .  S
C113        C114   1.404       .  A
C114        F115   1.358       .  S
C119        C120   1.404       .  A
C119        C124   1.400       .  A
C119        F126   1.358       .  S
C120        C121   1.404       .  A
C121        C122   1.398       .  A
C121        F128   1.358       .  S
C122        C123   1.412       .  A
C122        F127   1.358       .  S
C123        C124   1.412       .  A
C124        F125   1.357       .  S
C129        C130   1.412       .  A
C129        C134   1.393       .  A
C129        F136   1.356       .  S
C130        C131   1.413       .  A
C131        C132   1.404       .  A
C131        F138   1.357       .  S
C132        C133   1.404       .  A
C132        F137   1.357       .  S
C133        C134   1.401       .  A
C134        F135   1.359       .  S
C139        C140   1.398       .  A
C139        C144   1.395       .  A
C139        F146   1.356       .  S
C140        C141   1.402       .  A
C141        C142   1.403       .  A
C141        F148   1.358       .  S
C142        C143   1.413       .  A
C142        F147   1.357   1_455  S
C143        C144   1.412       .  A
C144        F145   1.358       .  S
C149        C150   1.408       .  A
C149        C154   1.401       .  A
C149        F156   1.357       .  S
C150        C151   1.406       .  A
C151        C152   1.397       .  A
C151        F158   1.358       .  S
C152        C153   1.405       .  A
C152        F157   1.358       .  S
C153        C154   1.404       .  A
C154        F155   1.358       .  S
C159        C160   1.409       .  A
C159        C164   1.401       .  A
C159        F166   1.358       .  S
C160        C161   1.412       .  A
C161        C162   1.397       .  A
C161        F168   1.358       .  S
C162        C163   1.404       .  A
C162        F167   1.358       .  S
C163        C164   1.406       .  A
C164        F165   1.358       .  S
C169        C170   1.404       .  A
C169        C174   1.396       .  A
C169        F176   1.358       .  S
C170        C171   1.407       .  A
C171        C172   1.401       .  A
C171        F178   1.358       .  S
C172        C173   1.409       .  A
C172        F177   1.358       .  S
C173        C174   1.411       .  A
C174        F175   1.358       .  S
C179        C180   1.413       .  A
C179        C184   1.395       .  A
C179        F186   1.358       .  S
C180        C181   1.412       .  A
C181        C182   1.402       .  A
C181        F188   1.357       .  S
C182        C183   1.402       .  A
C182        F187   1.358       .  S
C183        C184   1.399       .  A
C184        F185   1.358       .  S
C189        C190   1.403       .  A
C189        C194   1.406       .  A
C189        F196   1.357       .  S
C190        C191   1.400       .  A
C191        C192   1.389       .  A
C191        F198   1.359       .  S
C192        C193   1.412       .  A
C192        F197   1.357       .  S
C193        C194   1.414       .  A
C194        F195   1.357       .  S
C199        C200   1.402       .  A
C199        C204   1.402       .  A
C199        F206   1.357       .  S
C200        C201   1.402       .  A
C201        C202   1.396       .  A
C201        F208   1.358       .  S
C202        C203   1.409       .  A
C202        F207   1.358       .  S
C203        C204   1.410       .  A
C204        F205   1.357       .  S
C209        C210   1.402       .  A
C209        C214   1.399       .  A
C209        F216   1.358       .  S
C210        C211   1.403       .  A
C211        C212   1.400       .  A
C211        F218   1.358       .  S
C212        C213   1.408       .  A
C212        F217   1.358       .  S
C213        C214   1.409       .  A
C214        F215   1.357       .  S
C219        C220   1.394   1_556  A
C219        C224   1.399       .  A
C219        C418   1.474       .  S
C221        C222   1.404       .  A
C221        C428   1.474       .  S
C222        C223   1.419       .  A
C222        H226   1.079       .  S
C223        C270   1.515       .  S
C224        H227   1.077       .  S
C228        C229   1.399   1_556  A
C228        C233   1.407   1_545  A
C228        C398   1.492       .  S
C229        H234   1.083       .  S
C230        C231   1.398   1_545  A
C230        C408   1.474       .  S
C231        C232   1.418       .  A
C231        H235   1.077       .  S
C232        C279   1.514       .  S
C233        H236   1.078       .  S
C237        C238   1.402       .  A
C237        C242   1.398       .  A
C237        C388   1.483       .  S
C238        C239   1.416   1_556  A
C238        H243   1.080       .  S
C240        C241   1.402       .  A
C240        H244   1.079       .  S
C241        C381   1.482       .  S
C242        H245   1.083       .  S
O246       Cr264   1.965       .  S
O246        C254   1.260       .  A
O247       Cr264   2.010       .  S
O247        C248   1.263       .  A
C248        C401   1.465       .  S
C248        O249   1.257       .  A
O249       Cr265   1.974       .  S
O250       Cr265   2.019       .  S
O250        C251   1.268       .  A
C251        C391   1.485       .  S
C251        O252   1.256       .  A
O252       Cr266   1.963       .  S
O253       Cr266   2.018       .  S
O253        C254   1.269       .  A
C254        C421   1.481       .  S
O255       Cr264   2.009       .  S
O255        C263   1.265       .  A
O256       Cr264   1.957       .  S
O256        C257   1.258       .  A
C257        C411   1.488       .  S
C257        O258   1.270       .  A
O258       Cr265   2.026       .  S
O259       Cr265   1.964       .  S
O259        C260   1.258       .  A
C260        C378   1.486       .  S
C260        O261   1.269       .  A
O261       Cr266   2.020       .  S
O262       Cr266   1.975       .  S
O262        C263   1.259       .  A
C263        C431   1.481       .  S
Cr264       O267   1.767       .  S
Cr265       O267   1.771       .  S
Cr266       O267   1.769       .  S
C268        C269   1.409   1_455  A
C268        C273   1.402       .  A
C268        C361   1.493       .  S
C269        C270   1.419       .  A
C269        H274   1.079       .  S
C271        C272   1.398   1_655  A
C271        H275   1.077       .  S
C272        C371   1.479       .  S
C273        H276   1.082       .  S
C277        C278   1.400       .  A
C277        C282   1.396       .  A
C277        C351   1.478       .  S
C278        C279   1.418       .  A
C278        H283   1.077       .  S
C280        C281   1.404       .  A
C280        H284   1.079       .  S
C281        C338   1.481       .  S
C282        H285   1.084       .  S
C286        C287   1.400       .  A
C286        C291   1.394       .  A
C286        C331   1.474       .  S
C287        C288   1.417       .  A
C287        H292   1.080       .  S
C289        C290   1.403       .  A
C289        H293   1.080       .  S
C290        C318   1.481       .  S
C291        H294   1.084       .  S
O295       Cr313   1.964       .  S
O295        C303   1.259       .  A
O296       Cr313   2.013       .  S
O296        C297   1.265       .  A
C297        C358   1.467       .  S
C297        O298   1.258       .  A
O298       Cr314   1.975       .  S
O299       Cr314   2.008       .  S
O299        C300   1.266       .  A
C300        C328   1.476       .  S
C300        O301   1.258       .  A
O301       Cr315   1.970       .  S
O302       Cr315   2.022       .  S
O302        C303   1.269       .  A
C303        C348   1.490       .  S
O304       Cr313   2.014       .  S
O304        C312   1.266       .  A
O305       Cr313   1.969       .  S
O305        C306   1.260       .  A
C306        C368   1.477       .  S
C306        O307   1.267       .  A
O307       Cr314   2.014       .  S
O308       Cr314   1.965       .  S
O308        C309   1.259       .  A
C309        C321   1.486       .  S
C309        O310   1.269       .  A
O310       Cr315   2.018       .  S
O311       Cr315   1.970       .  S
O311        C312   1.258       .  A
C312        C341   1.489       .  S
Cr313       O316   1.770       .  S
Cr314       O316   1.770       .  S
Cr315       O316   1.773       .  S
C317        C318   1.403       .  A
C317        C322   1.395       .  A
C317        F324   1.358       .  S
C318        C319   1.406       .  A
C319        C320   1.402       .  A
C319        F326   1.358       .  S
C320        C321   1.410       .  A
C320        F325   1.358       .  S
C321        C322   1.411       .  A
C322        F323   1.356       .  S
C327        C328   1.406       .  A
C327        C332   1.396       .  A
C327        F334   1.358       .  S
C328        C329   1.409       .  A
C329        C330   1.401       .  A
C329        F336   1.358       .  S
C330        C331   1.403       .  A
C330        F335   1.357       .  S
C331        C332   1.404       .  A
C332        F333   1.358       .  S
C337        C338   1.404       .  A
C337        C342   1.400       .  A
C337        F344   1.358       .  S
C338        C339   1.404       .  A
C339        C340   1.398       .  A
C339        F346   1.358       .  S
C340        C341   1.412       .  A
C340        F345   1.358       .  S
C341        C342   1.412       .  A
C342        F343   1.357       .  S
C347        C348   1.412       .  A
C347        C352   1.393       .  A
C347        F354   1.356       .  S
C348        C349   1.413       .  A
C349        C350   1.404       .  A
C349        F356   1.357       .  S
C350        C351   1.404       .  A
C350        F355   1.357       .  S
C351        C352   1.401       .  A
C352        F353   1.359       .  S
C357        C358   1.398       .  A
C357        C362   1.395       .  A
C357        F364   1.356       .  S
C358        C359   1.402       .  A
C359        C360   1.403       .  A
C359        F366   1.358       .  S
C360        C361   1.413       .  A
C360        F365   1.357   1_455  S
C361        C362   1.412       .  A
C362        F363   1.358       .  S
C367        C368   1.408       .  A
C367        C372   1.401       .  A
C367        F374   1.357       .  S
C368        C369   1.406       .  A
C369        C370   1.397       .  A
C369        F376   1.358       .  S
C370        C371   1.405       .  A
C370        F375   1.358       .  S
C371        C372   1.404       .  A
C372        F373   1.358       .  S
C377        C378   1.409       .  A
C377        C382   1.401       .  A
C377        F384   1.358       .  S
C378        C379   1.412       .  A
C379        C380   1.397       .  A
C379        F386   1.358       .  S
C380        C381   1.404       .  A
C380        F385   1.358       .  S
C381        C382   1.406       .  A
C382        F383   1.358       .  S
C387        C388   1.404       .  A
C387        C392   1.396       .  A
C387        F394   1.358       .  S
C388        C389   1.407       .  A
C389        C390   1.401       .  A
C389        F396   1.358       .  S
C390        C391   1.409       .  A
C390        F395   1.358       .  S
C391        C392   1.411       .  A
C392        F393   1.358       .  S
C397        C398   1.413       .  A
C397        C402   1.395       .  A
C397        F404   1.358       .  S
C398        C399   1.412       .  A
C399        C400   1.402       .  A
C399        F406   1.357       .  S
C400        C401   1.402       .  A
C400        F405   1.358       .  S
C401        C402   1.399       .  A
C402        F403   1.358       .  S
C407        C408   1.403       .  A
C407        C412   1.406       .  A
C407        F414   1.357       .  S
C408        C409   1.400       .  A
C409        C410   1.389       .  A
C409        F416   1.359       .  S
C410        C411   1.412       .  A
C410        F415   1.357       .  S
C411        C412   1.414       .  A
C412        F413   1.357       .  S
C417        C418   1.402       .  A
C417        C422   1.402       .  A
C417        F424   1.357       .  S
C418        C419   1.402       .  A
C419        C420   1.396       .  A
C419        F426   1.358       .  S
C420        C421   1.409       .  A
C420        F425   1.358       .  S
C421        C422   1.410       .  A
C422        F423   1.357       .  S
C427        C428   1.402       .  A
C427        C432   1.399       .  A
C427        F434   1.358       .  S
C428        C429   1.403       .  A
C429        C430   1.400       .  A
C429        F436   1.358       .  S
C430        C431   1.408       .  A
C430        F435   1.358       .  S
C431        C432   1.409       .  A
C432        F433   1.357       .  S
