geometry optimzed in LAMMPS
_audit_creation_date              2020-12-01 
_audit_creation_method            'lammps2cif' 
_symmetry_space_group_name_H-M    'P1' 
_symmetry_Int_Tables_number       1 
_symmetry_cell_setting            triclinic 
loop_ 
_symmetry_equiv_pos_as_xyz 
  x,y,z 
_cell_length_a                    30.70977948 
_cell_length_b                    58.305689659515444 
_cell_length_c                    30.686944709571424 
_cell_angle_alpha                 89.94818310090639 
_cell_angle_beta                  90.03863145359844 
_cell_angle_gamma                 90.04609592640543 
loop_ 
_atom_site_label 
_atom_site_type_symbol 
_atom_site_fract_x 
_atom_site_fract_y 
_atom_site_fract_z 
_atom_site_charge 
O1          O  0.57145196  0.76731058  0.27107779    -0.73100
O2          O  0.44073816  0.76807156  0.27108650    -0.74100
O3          O  0.50558513  0.74911615  0.32609863    -0.62700
O4          O  0.50607910  0.78635120  0.21572468    -0.71100
O5          O  0.50534045  0.75410774  0.17726864    -0.70700
O6          O  0.50574584  0.71698187  0.28731837    -0.61900
O7          O  0.44014799  0.73581767  0.23285498    -0.74400
O8          O  0.57087548  0.73541396  0.23165340    -0.73200
Cu9        Cu  0.50605062  0.76884921  0.27233222     1.04600
Cu10       Cu  0.50552077  0.73447973  0.23088976     1.04300
C11         C  0.59178822  0.75117998  0.25162024     0.93100
C12         C  0.41975441  0.75187340  0.25247413     0.92200
C13         C  0.50544182  0.72722419  0.32408462     0.84400
C14         C  0.50546770  0.77599061  0.17906282     0.90700
O15         O  0.94048259  0.76610946  0.22686317    -0.73100
O16         O  0.07078717  0.76778648  0.23125530    -0.74100
O17         O  0.00836075  0.74814693  0.17420615    -0.62700
O18         O  0.00269875  0.78539001  0.28420506    -0.71100
O19         O  0.00192905  0.75308337  0.32260539    -0.70700
O20         O  0.00940037  0.71603368  0.21316186    -0.61900
O21         O  0.07119466  0.73599881  0.27110366    -0.74400
O22         O  0.94038819  0.73365143  0.26466890    -0.73200
Cu23       Cu  0.00561519  0.76796694  0.22772101     1.04600
Cu24       Cu  0.00577204  0.73356466  0.26922619     1.04300
C25         C  0.91980416  0.74964940  0.24496168     0.93100
C26         C  0.09157920  0.75236504  0.25225747     0.92200
C27         C  0.00965924  0.72625880  0.17637765     0.84400
C28         C  0.00110052  0.77494904  0.32079621     0.90700
O29         O  0.43970134  0.23551789  0.73181026    -0.73100
O30         O  0.57061923  0.23557678  0.73403202    -0.74100
O31         O  0.50461558  0.21684729  0.78782964    -0.62700
O32         O  0.50566408  0.25399977  0.67788710    -0.71100
O33         O  0.50373813  0.28625431  0.71626731    -0.70700
O34         O  0.50504636  0.24898730  0.82660054    -0.61900
O35         O  0.56971264  0.26817188  0.77134866    -0.74400
O36         O  0.43907930  0.26725491  0.77169008    -0.73200
Cu37       Cu  0.50518165  0.23436370  0.73152309     1.04600
Cu38       Cu  0.50438733  0.26877850  0.77285913     1.04300
C39         C  0.41876199  0.25147634  0.75117079     0.93100
C40         C  0.59077911  0.25189216  0.75321066     0.92200
C41         C  0.50495160  0.22708901  0.82457952     0.84400
C42         C  0.50444613  0.27587844  0.67963103     0.90700
O43         O  0.93842387  0.23495659  0.76751619    -0.73100
O44         O  0.06916936  0.23281655  0.76491000    -0.74100
O45         O  0.00598265  0.25238850  0.82075547    -0.62700
O46         O  0.00140080  0.21511928  0.71115672    -0.71100
O47         O  0.00316267  0.24719946  0.67212779    -0.70700
O48         O  0.00643380  0.28456024  0.78196021    -0.61900
O49         O  0.07024769  0.26500375  0.72644242    -0.74400
O50         O  0.93949429  0.26666809  0.72736835    -0.73200
Cu51       Cu  0.00373342  0.23269796  0.76741352     1.04600
Cu52       Cu  0.00490888  0.26697491  0.72557502     1.03100
C53         C  0.91839238  0.25105955  0.74760658     0.93100
C54         C  0.09044626  0.24865168  0.74549426     0.92200
C55         C  0.00674032  0.27426059  0.81872273     0.84400
C56         C  0.00137146  0.22533789  0.67433238     0.90700
O57         O  0.49887507  0.78317915  0.78754053    -0.73100
O58         O  0.49729488  0.74602756  0.67783489    -0.74100
O59         O  0.43279204  0.76383065  0.73438028    -0.62700
O60         O  0.56357110  0.76516368  0.73147506    -0.71100
O61         O  0.56536691  0.73231575  0.76821478    -0.70700
O62         O  0.43482146  0.73226779  0.77446982    -0.61900
O63         O  0.49762963  0.71372232  0.71620174    -0.74400
O64         O  0.50260019  0.75109790  0.82640562    -0.73200
Cu65       Cu  0.49807478  0.76565267  0.73143585     1.04600
Cu66       Cu  0.50017639  0.73123010  0.77273058     1.04300
C67         C  0.50116811  0.77299149  0.82428719     0.93100
C68         C  0.49694508  0.72414068  0.67955602     0.92200
C69         C  0.41300327  0.74778929  0.75481652     0.84400
C70         C  0.58497033  0.74886641  0.74927572     0.90700
O71         O  0.93323128  0.73303541  0.73088065    -0.73100
O72         O  0.06411903  0.73378062  0.73088186    -0.74100
O73         O  0.99922773  0.71513155  0.78570141    -0.62700
O74         O  0.99822354  0.75182976  0.67509980    -0.71100
O75         O  0.99875078  0.78420334  0.71315891    -0.70700
O76         O  0.99746020  0.74748089  0.82383198    -0.61900
O77         O  0.06325924  0.76579307  0.76983119    -0.74400
O78         O  0.93271028  0.76591220  0.76743242    -0.73200
Cu79       Cu  0.99868838  0.73234425  0.72918905     1.04600
Cu80       Cu  0.99799858  0.76698325  0.76986427     1.04300
C81         C  0.91244050  0.74935846  0.74922701     0.93100
C82         C  0.08435081  0.74957877  0.75151576     0.92200
C83         C  0.99877006  0.72559184  0.82221033     0.84400
C84         C  0.99841632  0.77373256  0.67662649     0.90700
N85         N  0.49935399  0.81556012  0.91107168    -0.27400
N86         N  0.50348247  0.79646596  0.93394171    -0.35300
C87         C  0.50520018  0.77847421  0.90664884     0.00900
C88         C  0.50201042  0.78661846  0.86450561     0.06900
C89         C  0.49842373  0.81020746  0.86841319    -0.06200
H90         H  0.50803276  0.76076802  0.91682141     0.07600
H91         H  0.49475403  0.82251758  0.84228604     0.08800
Cu92       Cu  0.50508255  0.79558933  0.00116576     0.44200
Cu93       Cu  0.49356870  0.84771471  0.93978455     0.42000
Cu94       Cu  0.49052346  0.84868868  0.05928716     0.43900
N95         N  0.50391223  0.79785194  0.06828254    -0.34800
N96         N  0.49863483  0.81721439  0.09001025    -0.29100
C97         C  0.49896814  0.81259072  0.13303205    -0.05200
C98         C  0.50455910  0.78918758  0.13831487     0.07000
C99         C  0.50753802  0.78041675  0.09665319     0.00800
H100        H  0.49481926  0.82524285  0.15844077     0.08500
H101        H  0.51170237  0.76263323  0.08754172     0.07600
N102        N  0.48508325  0.87761414  0.02005800    -0.36300
N103        N  0.48670828  0.87730785  0.97697364    -0.28500
C104        C  0.48376696  0.89895648  0.96204648    -0.03700
C105        C  0.47955867  0.91358236  0.99731462     0.04900
C106        C  0.48091890  0.89944522  0.03357470     0.03000
H107        H  0.48487178  0.90371776  0.92799881     0.08100
H108        H  0.48019745  0.90466434  0.06737165     0.06900
N109        N  0.49548570  0.18325145  0.09040771    -0.27400
N110        N  0.49782657  0.20286372  0.06890651    -0.35300
C111        C  0.49748463  0.22029235  0.09747147     0.00900
C112        C  0.49492896  0.21123832  0.13899950     0.06900
C113        C  0.49374519  0.18769118  0.13343744    -0.06200
H114        H  0.49923611  0.23823356  0.08861397     0.07600
H115        H  0.49180934  0.17477122  0.15866978     0.08800
Cu116      Cu  0.50171709  0.20524092  0.00184095     0.44200
Cu117      Cu  0.49489725  0.15162894  0.05946994     0.42000
Cu118      Cu  0.50196556  0.15237871  0.94053660     0.43900
N119        N  0.50414100  0.20397384  0.93460351    -0.34800
N120        N  0.50415980  0.18471393  0.91189220    -0.29100
C121        C  0.50482336  0.18992336  0.86914224    -0.05200
C122        C  0.50516892  0.21357294  0.86498379     0.07000
C123        C  0.50480858  0.22191325  0.90708285     0.00800
H124        H  0.50460300  0.17744293  0.84309103     0.08500
H125        H  0.50453265  0.23970688  0.91704514     0.07600
N126        N  0.49825985  0.12261196  0.97781997    -0.36300
N127        N  0.49559700  0.12243622  0.02084183    -0.28500
C128        C  0.49350149  0.10059273  0.03476593    -0.03700
C129        C  0.49542221  0.08625075  0.99889225     0.04900
C130        C  0.49790770  0.10083154  0.96330463     0.03000
H131        H  0.49023609  0.09557861  0.06853035     0.08100
H132        H  0.49956708  0.09596050  0.92935304     0.06900
N133        N  0.49785765  0.31500557  0.41175808    -0.27400
N134        N  0.49796345  0.29583423  0.43473933    -0.35300
C135        C  0.49649464  0.27780474  0.40753718     0.00900
C136        C  0.49536738  0.28605066  0.36536375     0.06900
C137        C  0.49627568  0.30969756  0.36913515    -0.06200
H138        H  0.49644518  0.26004284  0.41775623     0.07600
H139        H  0.49601034  0.32210683  0.34291917     0.08800
Cu140      Cu  0.50019713  0.29511733  0.50186043     0.44200
Cu141      Cu  0.49995297  0.34725349  0.44015997     0.42000
Cu142      Cu  0.49850638  0.34903590  0.55964819     0.43900
N143        N  0.50166842  0.29765784  0.56884749    -0.34800
N144        N  0.50076064  0.31723804  0.59051851    -0.29100
C145        C  0.50181864  0.31263840  0.63355400    -0.05200
C146        C  0.50351665  0.28905542  0.63885583     0.07000
C147        C  0.50335019  0.28014638  0.59721673     0.00800
H148        H  0.50130270  0.32546470  0.65898326     0.08500
H149        H  0.50417091  0.26222918  0.58811398     0.07600
N150        N  0.49898974  0.37792437  0.51966414    -0.36300
N151        N  0.50039035  0.37721308  0.47658146    -0.28500
C152        C  0.50146085  0.39876838  0.46094222    -0.03700
C153        C  0.50000457  0.41378962  0.49573418     0.04900
C154        C  0.49880867  0.39999189  0.53247806     0.03000
H155        H  0.50274497  0.40317619  0.42673047     0.08100
H156        H  0.49842913  0.40556579  0.56606378     0.06900
N157        N  0.49689941  0.68290991  0.59030032    -0.27400
N158        N  0.49587913  0.70249954  0.56858738    -0.35300
C159        C  0.49523625  0.71998173  0.59704160     0.00900
C160        C  0.49594585  0.71102321  0.63871642     0.06900
C161        C  0.49693942  0.68745105  0.63334949    -0.06200
H162        H  0.49492955  0.73791612  0.58798602     0.07600
H163        H  0.49827606  0.67459179  0.65873521     0.08800
Cu164      Cu  0.49734759  0.70501911  0.50135823     0.44200
Cu165      Cu  0.50014074  0.65117187  0.55970398     0.42000
Cu166      Cu  0.50799609  0.65276382  0.44059610     0.43900
N167        N  0.50144444  0.70410299  0.43410487    -0.34800
N168        N  0.50509989  0.68491408  0.41151209    -0.29100
C169        C  0.50703632  0.69012206  0.36880365    -0.05200
C170        C  0.50468330  0.71372866  0.36452579     0.07000
C171        C  0.50116327  0.72203353  0.40653476     0.00800
H172        H  0.51013537  0.67767432  0.34288298     0.08500
H173        H  0.49852130  0.73978820  0.41638746     0.07600
N174        N  0.51041923  0.62293967  0.47763403    -0.36300
N175        N  0.50697225  0.62231456  0.52057762    -0.28500
C176        C  0.50889834  0.60035075  0.53390362    -0.03700
C177        C  0.51450698  0.58644326  0.49771507     0.04900
C178        C  0.51485567  0.60140645  0.46261474     0.03000
H179        H  0.50549478  0.59494583  0.56742992     0.08100
H180        H  0.51792980  0.59696919  0.42855216     0.06900
N181        N  0.99627652  0.81618143  0.40953547    -0.27400
N182        N  0.99573314  0.79665441  0.43143858    -0.35300
C183        C  0.99691235  0.77911183  0.40315379     0.00900
C184        C  0.99835997  0.78802856  0.36146636     0.06900
C185        C  0.99781590  0.81158676  0.36658891    -0.06200
H186        H  0.99730533  0.76119545  0.41233659     0.07600
H187        H  0.99903640  0.82441768  0.34114461     0.08800
Cu188      Cu  0.99523079  0.79450577  0.49869368     0.44200
Cu189      Cu  0.99647742  0.84793632  0.43957784     0.42000
Cu190      Cu  0.99733007  0.84753842  0.55869260     0.43900
N191        N  0.99664976  0.79606959  0.56599245    -0.34800
N192        N  0.99748064  0.81547095  0.58823162    -0.29100
C193        C  0.99835742  0.81057331  0.63110419    -0.05200
C194        C  0.99808222  0.78696142  0.63587069     0.07000
C195        C  0.99699700  0.77832354  0.59397457     0.00800
H196        H  0.99907146  0.82324295  0.65681584     0.08500
H197        H  0.99642175  0.76046256  0.58446732     0.07600
N198        N  0.99749606  0.87710173  0.52085737    -0.36300
N199        N  0.99750411  0.87717283  0.47775442    -0.28500
C200        C  0.99798593  0.89897486  0.46350254    -0.03700
C201        C  0.99860899  0.91334064  0.49932855     0.04900
C202        C  0.99779238  0.89890458  0.53513927     0.03000
H203        H  0.99731049  0.90395765  0.42957641     0.08100
H204        H  0.99769196  0.90387764  0.56907394     0.06900
N205        N  0.99547795  0.18331358  0.58682200    -0.27400
N206        N  0.99564400  0.20265379  0.56433917    -0.35300
C207        C  0.99774692  0.22045253  0.59200433     0.00900
C208        C  0.99898589  0.21192265  0.63397143     0.06900
C209        C  0.99739451  0.18830612  0.62961096    -0.06200
H210        H  0.99843063  0.23827822  0.58221842     0.07600
H211        H  0.99780892  0.17571020  0.65549946     0.08800
Cu212      Cu  0.99361483  0.20414661  0.49717710     0.44200
Cu213      Cu  0.99343138  0.15131421  0.55738099     0.42000
Cu214      Cu  0.99012452  0.15105973  0.43778133     0.43900
N215        N  0.99261992  0.20239443  0.43002182    -0.34800
N216        N  0.99159190  0.18297436  0.40787094    -0.29100
C217        C  0.99164924  0.18781933  0.36496803    -0.05200
C218        C  0.99267427  0.21142365  0.36017040     0.07000
C219        C  0.99326771  0.22010052  0.40201234     0.00800
H220        H  0.99098598  0.17513149  0.33928561     0.08500
H221        H  0.99425067  0.23796176  0.41147754     0.07600
N222        N  0.98929158  0.12180245  0.47631673    -0.36300
N223        N  0.99123385  0.12191005  0.51940273    -0.28500
C224        C  0.99095359  0.10014883  0.53392035    -0.03700
C225        C  0.98802099  0.08570497  0.49837226     0.04900
C226        C  0.98732070  0.09996332  0.46235351     0.03000
H227        H  0.99234529  0.09521484  0.56786634     0.08100
H228        H  0.98599290  0.09486181  0.42852553     0.06900
N229        N  0.00756327  0.31585444  0.90721052    -0.27400
N230        N  0.00614070  0.29637710  0.92924743    -0.35300
C231        C  0.00618525  0.27875223  0.90112058     0.00900
C232        C  0.00762907  0.28751913  0.85933291     0.06900
C233        C  0.00852893  0.31111119  0.86426940    -0.06200
H234        H  0.00466914  0.26087187  0.91045535     0.07600
H235        H  0.00922994  0.32386081  0.83865929     0.08800
Cu236      Cu  0.00299062  0.29431996  0.99641816     0.44200
Cu237      Cu  0.00637086  0.34774083  0.93721980     0.42000
Cu238      Cu  0.99981779  0.34731647  0.05641972     0.43900
N239        N  0.00023797  0.29577070  0.06366778    -0.34800
N240        N  0.99933100  0.31514302  0.08599998    -0.29100
C241        C  0.99782129  0.31014091  0.12883895    -0.05200
C242        C  0.99769671  0.28650189  0.13346224     0.07000
C243        C  0.99925754  0.27796328  0.09151076     0.00800
H244        H  0.99681690  0.32275428  0.15463457     0.08500
H245        H  0.99974978  0.26012098  0.08187185     0.07600
N246        N  0.99946637  0.37695811  0.01843474    -0.36300
N247        N  0.00205514  0.37703693  0.97539898    -0.28500
C248        C  0.00130018  0.39885080  0.96113933    -0.03700
C249        C  0.99759324  0.41326511  0.99675996     0.04900
C250        C  0.99693846  0.39876605  0.03258938     0.03000
H251        H  0.00326925  0.40385456  0.92725261     0.08100
H252        H  0.99560612  0.40368480  0.06653051     0.06900
N253        N  0.01055800  0.68402733  0.08892298    -0.27400
N254        N  0.01038175  0.70337642  0.06644128    -0.35300
C255        C  0.01065783  0.72122303  0.09405979     0.00900
C256        C  0.01096508  0.71276245  0.13605236     0.06900
C257        C  0.01092148  0.68910643  0.13173698    -0.06200
H258        H  0.01004384  0.73904001  0.08421339     0.07600
H259        H  0.01065903  0.67655026  0.15769824     0.08800
Cu260      Cu  0.00822722  0.70502335  0.99942457     0.44200
Cu261      Cu  0.00978444  0.65186223  0.05946616     0.42000
Cu262      Cu  0.00964050  0.65203921  0.94002047     0.43900
N263        N  0.00464282  0.70334339  0.93247873    -0.34800
N264        N  0.00526666  0.68393764  0.91028473    -0.29100
C265        C  0.00274276  0.68878529  0.86747240    -0.05200
C266        C  0.00037984  0.71236758  0.86281358     0.07000
C267        C  0.00167740  0.72104422  0.90461497     0.00800
H268        H  0.00296526  0.67612327  0.84173793     0.08500
H269        H  0.00096205  0.73890111  0.91413303     0.07600
N270        N  0.01211100  0.62257865  0.97797988    -0.36300
N271        N  0.01151002  0.62242816  0.02107896    -0.28500
C272        C  0.01238174  0.60054121  0.03502747    -0.03700
C273        C  0.01427805  0.58619318  0.99903904     0.04900
C274        C  0.01358135  0.60083689  0.96347613     0.03000
H275        H  0.01083286  0.59550125  0.06890024     0.08100
H276        H  0.01396442  0.59604717  0.92944373     0.06900
O277        O  0.49463089  0.21372207  0.21649525    -0.73100
O278        O  0.49452023  0.25063625  0.32716230    -0.74100
O279        O  0.42922325  0.23175398  0.27239807    -0.62700
O280        O  0.55985895  0.23269136  0.27187078    -0.71100
O281        O  0.55878243  0.26482121  0.23308228    -0.70700
O282        O  0.42838076  0.26403147  0.23411443    -0.61900
O283        O  0.49380746  0.28282371  0.28840458    -0.74400
O284        O  0.49363846  0.24610837  0.17837027    -0.73200
Cu285      Cu  0.49456300  0.23103151  0.27329580     1.04600
Cu286      Cu  0.49357834  0.26552265  0.23209292     1.04300
C287        C  0.49428951  0.22423043  0.17993383     0.93100
C288        C  0.49441846  0.27253156  0.32511626     0.92200
C289        C  0.40814856  0.24798351  0.25398054     0.84400
C290        C  0.57993928  0.24911837  0.25296627     0.90700
O291        O  0.99381084  0.21429030  0.28291926    -0.73100
O292        O  0.99540324  0.25125044  0.17237044    -0.74100
O293        O  0.05979118  0.23250359  0.22824864    -0.62700
O294        O  0.92926734  0.23303145  0.22739139    -0.71100
O295        O  0.92949911  0.26549287  0.26460630    -0.70700
O296        O  0.06006551  0.26444845  0.26752490    -0.61900
O297        O  0.99643403  0.28349442  0.21077787    -0.74400
O298        O  0.99325457  0.24657525  0.32124213    -0.73200
Cu299      Cu  0.99454347  0.23165536  0.22636853     1.04600
Cu300      Cu  0.99480171  0.26611988  0.26739740     1.04300
C301        C  0.99324887  0.22468398  0.31951966     0.93100
C302        C  0.99641348  0.27314573  0.17411325     0.92200
C303        C  0.08054014  0.24839062  0.24802022     0.84400
C304        C  0.90853744  0.24942999  0.24548902     0.90700
C305        C  0.29000003  0.26742706  0.25786132    -0.11500
C306        C  0.26817573  0.24633369  0.25625292     0.15000
C307        C  0.29246986  0.22582610  0.25462143     0.01900
C308        C  0.33798340  0.22688870  0.25407309    -0.15900
C309        C  0.36001393  0.24800993  0.25557367    -0.10700
C310        C  0.33546585  0.26850520  0.25821967     0.08600
C311        C  0.22009167  0.24644566  0.25489196     0.09700
S312        S  0.26739944  0.19784716  0.25292424    -0.25000
H313        H  0.35635389  0.21105371  0.25214956     0.19900
S314        S  0.35984697  0.29647840  0.26400334    -0.30700
H315        H  0.27135215  0.28319185  0.25934100     0.10200
C316        C  0.19525586  0.25259957  0.29164206     0.03400
C317        C  0.14975120  0.25348689  0.28827495    -0.13000
C318        C  0.12858638  0.24806856  0.24900941    -0.08700
C319        C  0.15373913  0.24193830  0.21222938     0.06900
C320        C  0.19910053  0.24103627  0.21568605    -0.13800
S321        S  0.22148006  0.25856179  0.34313192    -0.30700
H322        H  0.13048281  0.25798939  0.31653234     0.11100
S323        S  0.13023829  0.23616955  0.15950297    -0.27800
H324        H  0.21831840  0.23655772  0.18734088     0.08400
H325        H  0.39228736  0.28920468  0.29332875     0.26800
H326        H  0.18319658  0.26189161  0.36745085     0.21600
H327        H  0.09791362  0.25318662  0.16252868     0.26900
H328        H  0.22992368  0.20375220  0.27665883     0.15700
C329        C  0.69825032  0.24383224  0.28830849    -0.11500
C330        C  0.71983963  0.25159052  0.25081255     0.15000
C331        C  0.69514714  0.25897323  0.21458614     0.01900
C332        C  0.64971116  0.25783971  0.21619105    -0.15900
C333        C  0.62800880  0.25004572  0.25363674    -0.10700
C334        C  0.65275189  0.24349677  0.29050752     0.08600
C335        C  0.76804046  0.25116470  0.24991702     0.09700
S336        S  0.71957109  0.27024016  0.16558012    -0.25000
H337        H  0.63111973  0.26313435  0.18789146     0.19900
S338        S  0.62848640  0.23576604  0.34195738    -0.30700
H339        H  0.71705470  0.23835412  0.31633829     0.10200
C340        C  0.79310444  0.26539009  0.27724652     0.03400
C341        C  0.83866977  0.26442333  0.27497845    -0.13000
C342        C  0.86004001  0.24985630  0.24528330    -0.08700
C343        C  0.83436876  0.23606744  0.21709029     0.06900
C344        C  0.78897894  0.23652006  0.22049985    -0.13800
S345        S  0.76714189  0.28537790  0.31395452    -0.30700
H346        H  0.85769898  0.27514000  0.29656702     0.11100
S347        S  0.85669950  0.21836462  0.17453563    -0.27800
H348        H  0.76962771  0.22577359  0.19914387     0.08400
H349        H  0.59525423  0.25233943  0.33976938     0.26800
H350        H  0.80546978  0.29493210  0.33132003     0.21600
H351        H  0.88427767  0.23574397  0.15857497     0.26900
H352        H  0.75572973  0.28030373  0.18622084     0.15700
C353        C  0.03117499  0.52314713  0.02804251    -0.11500
C354        C  0.00608117  0.51238646  0.99585209     0.15000
C355        C  0.98486389  0.52588297  0.96410017     0.01900
C356        C  0.98893191  0.54978467  0.96549578    -0.15900
C357        C  0.01356153  0.56071810  0.99807656    -0.10700
C358        C  0.03584668  0.54703570  0.02904819     0.08600
C359        C  0.00393322  0.48703940  0.99549808     0.09700
S360        S  0.95247035  0.51373291  0.92076987    -0.25000
H361        H  0.97181340  0.55994871  0.94139563     0.19900
S362        S  0.07310314  0.55865051  0.06871267    -0.30700
H363        H  0.04830345  0.51276803  0.05183274     0.10200
C364        C  0.03019969  0.47395314  0.96735483     0.03400
C365        C  0.02694820  0.44994857  0.96802964    -0.13000
C366        C  0.99786942  0.43870928  0.99627168    -0.08700
C367        C  0.97080899  0.45202667  0.02369555     0.06900
C368        C  0.97474758  0.47595398  0.02357276    -0.13800
S369        S  0.06851202  0.48784159  0.93130539    -0.30700
H370        H  0.04780402  0.43985269  0.94708525     0.11100
S371        S  0.92887754  0.43980071  0.05760637    -0.27800
H372        H  0.95405075  0.48608999  0.04468353     0.08400
H373        H  0.08953314  0.57583736  0.04101548     0.26800
H374        H  0.08312452  0.46784461  0.91030504     0.21600
H375        H  0.91760721  0.42231135  0.02812232     0.26900
H376        H  0.93947465  0.49382254  0.94304275     0.15700
C377        C  0.95796815  0.02347033  0.47752917    -0.11500
C378        C  0.99081427  0.01215785  0.50085332     0.15000
C379        C  0.02230761  0.02509126  0.52362878     0.01900
C380        C  0.02035637  0.04903763  0.52244717    -0.15900
C381        C  0.98757913  0.06042054  0.49906405    -0.10700
C382        C  0.95577048  0.04743363  0.47669022     0.08600
C383        C  0.99192267  0.98687005  0.50020710     0.09700
S384        S  0.06623689  0.01213013  0.55398417    -0.25000
H385        H  0.04491422  0.05889691  0.53957827     0.19900
S386        S  0.91079176  0.06030231  0.44789800    -0.30700
H387        H  0.93364965  0.01352681  0.46022896     0.10200
C388        C  0.96524924  0.97378886  0.52805910     0.03400
C389        C  0.96853250  0.94980783  0.52752736    -0.13000
C390        C  0.99787215  0.93867826  0.49954986    -0.08700
C391        C  0.02497261  0.95196852  0.47208440     0.06900
C392        C  0.02129383  0.97586365  0.47235117    -0.13800
S393        S  0.92780786  0.98771013  0.56488156    -0.30700
H394        H  0.94784527  0.93964883  0.54860490     0.11100
S395        S  0.06661810  0.93971530  0.43793072    -0.27800
H396        H  0.04224307  0.98602823  0.45147136     0.08400
H397        H  0.90540244  0.07869570  0.47701561     0.26800
H398        H  0.91043822  0.96759003  0.58330753     0.21600
H399        H  0.07805958  0.92222744  0.46738827     0.26900
H400        H  0.04410429  0.99194510  0.56562639     0.15700
C401        C  0.47744942  0.47680242  0.51791866    -0.11500
C402        C  0.50956085  0.48733180  0.49238525     0.15000
C403        C  0.53767361  0.47363942  0.46698745     0.01900
C404        C  0.53294497  0.44974542  0.46766285    -0.15900
C405        C  0.50131520  0.43913201  0.49388622    -0.10700
C406        C  0.47267372  0.45294382  0.51855949     0.08600
C407        C  0.51204747  0.51264806  0.49237737     0.09700
S408        S  0.58009537  0.48555542  0.43317087    -0.25000
H409        H  0.55496801  0.43931229  0.44851093     0.19900
S410        S  0.42797318  0.44134696  0.54962221    -0.30700
H411        H  0.45535621  0.48732114  0.53683382     0.10200
C412        C  0.49204155  0.52582357  0.45956238     0.03400
C413        C  0.49411667  0.54983707  0.46170495    -0.13000
C414        C  0.51590625  0.56100041  0.49601542    -0.08700
C415        C  0.53710554  0.54755796  0.52812843     0.06900
C416        C  0.53415579  0.52362608  0.52639353    -0.13800
S417        S  0.46298094  0.51202423  0.41560412    -0.30700
H418        H  0.47781524  0.55996520  0.43704724     0.11100
S419        S  0.57045148  0.55958873  0.57071772    -0.27800
H420        H  0.55003506  0.51340660  0.55127275     0.08400
H421        H  0.41883838  0.42337509  0.52044911     0.26800
H422        H  0.44865615  0.53219495  0.39491801     0.21600
H423        H  0.58738856  0.57739216  0.54479812     0.26900
H424        H  0.58807943  0.50512469  0.45862704     0.15700
C425        C  0.51056326  0.02316677  0.02755661    -0.11500
C426        C  0.48361705  0.01267195  0.99659116     0.15000
C427        C  0.46086755  0.02639246  0.96626332     0.01900
C428        C  0.46615093  0.05024796  0.96718705    -0.15900
C429        C  0.49301364  0.06086183  0.99830192    -0.10700
C430        C  0.51589539  0.04699669  0.02849854     0.08600
C431        C  0.48183288  0.98734139  0.99554274     0.09700
S432        S  0.42500988  0.01459639  0.92538671    -0.25000
H433        H  0.44833829  0.06065792  0.94397244     0.19900
S434        S  0.55440500  0.05833566  0.06726425    -0.30700
H435        H  0.52856594  0.01261623  0.05041144     0.10200
C436        C  0.50893253  0.97462604  0.96757374     0.03400
C437        C  0.50683677  0.95059050  0.96818684    -0.13000
C438        C  0.47822542  0.93898232  0.99633452    -0.08700
C439        C  0.45038357  0.95190677  0.02363992     0.06900
C440        C  0.45305736  0.97587595  0.02347663    -0.13800
S441        S  0.54690133  0.98904974  0.93191217    -0.30700
H442        H  0.52829332  0.94076732  0.94737898     0.11100
S443        S  0.40927914  0.93904853  0.05773243    -0.27800
H444        H  0.43190046  0.98572504  0.04461900     0.08400
H445        H  0.57056291  0.07548678  0.03934103     0.26800
H446        H  0.56461438  0.96919334  0.91291906     0.21600
H447        H  0.39935635  0.92113802  0.02868334     0.26900
H448        H  0.41361512  0.99454723  0.94806542     0.15700
C449        C  0.20126507  0.75725955  0.79042081    -0.11500
C450        C  0.22447383  0.74926305  0.75422595     0.15000
C451        C  0.20153549  0.74086425  0.71769505     0.01900
C452        C  0.15597038  0.74068836  0.71811984    -0.15900
C453        C  0.13250861  0.74907448  0.75400566    -0.10700
C454        C  0.15570486  0.75700812  0.79097780     0.08600
C455        C  0.27257564  0.74919901  0.75603526     0.09700
S456        S  0.22844429  0.73030731  0.66947112    -0.25000
H457        H  0.13869649  0.73446587  0.68967281     0.19900
S458        S  0.12944014  0.76579497  0.84076903    -0.30700
H459        H  0.21886544  0.76329886  0.81882013     0.10200
C460        C  0.29673987  0.76937910  0.74911754     0.03400
C461        C  0.34236431  0.76837659  0.74911714    -0.13000
C462        C  0.36457375  0.74754136  0.75575469    -0.08700
C463        C  0.33982161  0.72730583  0.76282605     0.06900
C464        C  0.29430605  0.72846030  0.76338816    -0.13800
S465        S  0.26935617  0.79627154  0.73895905    -0.30700
H466        H  0.36081736  0.78395725  0.74387434     0.11100
S467        S  0.36367392  0.69926118  0.76893254    -0.27800
H468        H  0.27554401  0.71292581  0.76839504     0.08400
H469        H  0.09757699  0.74843791  0.83960536     0.26800
H470        H  0.30705055  0.80973055  0.73391643     0.21600
H471        H  0.39208326  0.70190252  0.73329654     0.26900
H472        H  0.26526754  0.74454842  0.67234873     0.15700
C473        C  0.70236376  0.76647658  0.76670551    -0.11500
C474        C  0.72453468  0.74949183  0.74311471     0.15000
C475        C  0.70029059  0.73215779  0.72182865     0.01900
C476        C  0.65480341  0.73204916  0.72515877    -0.15900
C477        C  0.63282363  0.74921975  0.74829889    -0.10700
C478        C  0.65692227  0.76653793  0.76946232     0.08600
C479        C  0.77285396  0.74956830  0.74380477     0.09700
S480        S  0.72526467  0.71001602  0.68932047    -0.25000
H481        H  0.63631657  0.71877354  0.70871226     0.19900
S482        S  0.63163023  0.78864937  0.80174195    -0.30700
H483        H  0.72071778  0.77954281  0.78387269     0.10200
C484        C  0.79712513  0.76810763  0.72682001     0.03400
C485        C  0.84270558  0.76781577  0.72991568    -0.13000
C486        C  0.86452461  0.74925061  0.74906724    -0.08700
C487        C  0.84022896  0.73083397  0.76644436     0.06900
C488        C  0.79476797  0.73115637  0.76351912    -0.13800
S489        S  0.77031264  0.79168887  0.69958129    -0.30700
H490        H  0.86158906  0.78182523  0.71646778     0.11100
S491        S  0.86519676  0.70690105  0.79409299    -0.27800
H492        H  0.77621844  0.71711257  0.77737154     0.08400
H493        H  0.59785059  0.77474561  0.81784779     0.26800
H494        H  0.80802202  0.80458469  0.69073943     0.21600
H495        H  0.90002292  0.71946208  0.81189270     0.26900
H496        H  0.76119334  0.72318356  0.67582518     0.15700
C497        C  0.20923145  0.22957304  0.74982344    -0.11500
C498        C  0.23066482  0.25079964  0.75047673     0.15000
C499        C  0.20596046  0.27118006  0.74860579     0.01900
C500        C  0.16049795  0.26986466  0.74671564    -0.15900
C501        C  0.13876564  0.24862783  0.74606164    -0.10700
C502        C  0.16377265  0.22822674  0.74722839     0.08600
C503        C  0.27882213  0.25103264  0.75152383     0.09700
S504        S  0.23025496  0.29938271  0.74901079    -0.25000
H505        H  0.14190461  0.28565010  0.74605621     0.19900
S506        S  0.14014434  0.19998706  0.74356659    -0.30700
H507        H  0.22819081  0.21390667  0.75063481     0.10200
C508        C  0.30216897  0.25643218  0.78970803     0.03400
C509        C  0.34787777  0.25675725  0.78859944    -0.13000
C510        C  0.37065172  0.25172236  0.75007051    -0.08700
C511        C  0.34695547  0.24679606  0.71167563     0.06900
C512        C  0.30145903  0.24610295  0.71303612    -0.13800
S513        S  0.27375749  0.26246749  0.83991210    -0.30700
H514        H  0.36601563  0.26057524  0.81798203     0.11100
S515        S  0.37260284  0.24259437  0.65944874    -0.27800
H516        H  0.28342587  0.24233080  0.68352319     0.08400
H517        H  0.10928004  0.20609915  0.71169049     0.26800
H518        H  0.31096380  0.26625183  0.86569469     0.21600
H519        H  0.40544095  0.25907772  0.66605922     0.26900
H520        H  0.26951227  0.29330494  0.72861294     0.15700
C521        C  0.70904334  0.23352871  0.76368343    -0.11500
C522        C  0.73069610  0.25414425  0.75436847     0.15000
C523        C  0.70611123  0.27401050  0.74507691     0.01900
C524        C  0.66057663  0.27278578  0.74516428    -0.15900
C525        C  0.63884843  0.25214144  0.75437014    -0.10700
C526        C  0.66354353  0.23234955  0.76421069     0.08600
C527        C  0.77887393  0.25404247  0.75322233     0.09700
S528        S  0.73077672  0.30131466  0.73250440    -0.25000
H529        H  0.64191360  0.28805065  0.73758212     0.19900
S530        S  0.63912849  0.20533442  0.77918170    -0.30700
H531        H  0.72783249  0.21825877  0.77090918     0.10200
C532        C  0.80369539  0.25186940  0.79166652     0.03400
C533        C  0.84922748  0.25055436  0.78885308    -0.13000
C534        C  0.87041646  0.25170471  0.74840358    -0.08700
C535        C  0.84541755  0.25394271  0.70996031     0.06900
C536        C  0.80000872  0.25523661  0.71280941    -0.13800
S537        S  0.77742698  0.25149762  0.84432053    -0.30700
H538        H  0.86852429  0.24902723  0.81826010     0.11100
S539        S  0.86932193  0.25415852  0.65630126    -0.27800
H540        H  0.78088278  0.25667044  0.68324295     0.08400
H541        H  0.60472967  0.21503500  0.80314011     0.26800
H542        H  0.81567822  0.25045949  0.86948908     0.21600
H543        H  0.90302391  0.23868551  0.66622240     0.26900
H544        H  0.76857120  0.29813055  0.75763455     0.15700
C545        C  0.30114592  0.73277911  0.25505757    -0.11500
C546        C  0.27962022  0.75393636  0.25319574     0.15000
C547        C  0.30428762  0.77438351  0.25226808     0.01900
C548        C  0.34980405  0.77315764  0.25199116    -0.15900
C549        C  0.37154027  0.75196356  0.25348827    -0.10700
C550        C  0.34663637  0.73155452  0.25579933     0.08600
C551        C  0.23145702  0.75397948  0.25258476     0.09700
S552        S  0.27983771  0.80252193  0.25122118    -0.25000
H553        H  0.36841748  0.78893690  0.25046208     0.19900
S554        S  0.37059488  0.70351794  0.26189642    -0.30700
H555        H  0.28226389  0.71708372  0.25650033     0.10200
C556        C  0.20791796  0.75904794  0.21436097     0.03400
C557        C  0.16225525  0.75880777  0.21543875    -0.13000
C558        C  0.13963164  0.75338945  0.25388148    -0.08700
C559        C  0.16344342  0.74867822  0.29231225     0.06900
C560        C  0.20899476  0.74870070  0.29106663    -0.13800
S561        S  0.23601578  0.76501629  0.16390542    -0.30700
H562        H  0.14403312  0.76231107  0.18595929     0.11100
S563        S  0.13781963  0.74361216  0.34429332    -0.27800
H564        H  0.22716010  0.74504265  0.32055571     0.08400
H565        H  0.40284890  0.71069024  0.29152068     0.26800
H566        H  0.19876880  0.76995457  0.13890721     0.21600
H567        H  0.10363756  0.75929946  0.33771875     0.26900
H568        H  0.24143090  0.79659734  0.27340441     0.15700
C569        C  0.71020251  0.75631255  0.28661802    -0.11500
C570        C  0.73169111  0.75169537  0.24727878     0.15000
C571        C  0.70695764  0.74659237  0.20971474     0.01900
C572        C  0.66149846  0.74590226  0.21242203    -0.15900
C573        C  0.63988376  0.75084293  0.25159612    -0.10700
C574        C  0.66470561  0.75585768  0.28924535     0.08600
C575        C  0.77988902  0.75139164  0.24677791     0.09700
S576        S  0.73141407  0.74131155  0.15723811    -0.25000
H577        H  0.64276964  0.74215660  0.18332583     0.19900
S578        S  0.64049969  0.76071014  0.34195587    -0.30700
H579        H  0.72911073  0.75988618  0.31567763     0.10200
C580        C  0.80433228  0.77173657  0.25080989     0.03400
C581        C  0.84992527  0.77066773  0.24933554    -0.13000
C582        C  0.87166717  0.74965117  0.24404365    -0.08700
C583        C  0.84692985  0.72934174  0.23925068     0.06900
C584        C  0.80145472  0.73040433  0.24125400    -0.13800
S585        S  0.77745726  0.79910578  0.25685269    -0.30700
H586        H  0.86880495  0.78624497  0.25293222     0.11100
S587        S  0.87115606  0.70178977  0.22830527    -0.27800
H588        H  0.78260361  0.71479718  0.23762262     0.08400
H589        H  0.60690015  0.74452597  0.33666205     0.26800
H590        H  0.81540182  0.81256584  0.25943741     0.21600
H591        H  0.90417773  0.71042731  0.20105346     0.26900
H592        H  0.76748778  0.75583901  0.16322559     0.15700
loop_ 
_geom_bond_atom_site_label_1 
_geom_bond_atom_site_label_2 
_geom_bond_distance 
_geom_bond_site_symmetry_2 
_ccdc_geom_bond_type 
O1           Cu9   2.011       .  S
O1           C11   1.278       .  A
O2           Cu9   2.007       .  S
O2           C12   1.278       .  A
O3           Cu9   2.011       .  S
O3           C13   1.278       .  A
O4           Cu9   2.014       .  S
O4           C14   1.278       .  A
O5          Cu10   2.003       .  S
O5           C14   1.277       .  A
O6          Cu10   2.009       .  S
O6           C13   1.277       .  A
O7          Cu10   2.010       .  S
O7           C12   1.278       .  A
O8          Cu10   2.008       .  S
O8           C11   1.278       .  A
Cu9         Cu10   2.374       .  S
C11         C573   1.477       .  S
C12         C549   1.481       .  S
C13         C170   1.469       .  S
C14          C98   1.468       .  S
O15         Cu23   2.003   1_655  S
O15          C25   1.277       .  A
O16         Cu23   2.004       .  S
O16          C26   1.277       .  A
O17         Cu23   2.011       .  S
O17          C27   1.279       .  A
O18         Cu23   2.012       .  S
O18          C28   1.278       .  A
O19         Cu24   1.999       .  S
O19          C28   1.276       .  A
O20         Cu24   2.005       .  S
O20          C27   1.276       .  A
O21         Cu24   2.015       .  S
O21          C26   1.279       .  A
O22         Cu24   2.013   1_655  S
O22          C25   1.279       .  A
Cu23        Cu24   2.375       .  S
C25         C582   1.479       .  S
C26         C558   1.478       .  S
C27         C256   1.468       .  S
C28         C184   1.466   1_455  S
O29         Cu37   2.012       .  S
O29          C39   1.279       .  A
O30         Cu37   2.012       .  S
O30          C40   1.278       .  A
O31         Cu37   2.006       .  S
O31          C41   1.277       .  A
O32         Cu37   2.004       .  S
O32          C42   1.277       .  A
O33         Cu38   2.013       .  S
O33          C42   1.277       .  A
O34         Cu38   2.012       .  S
O34          C41   1.278       .  A
O35         Cu38   2.007       .  S
O35          C40   1.277       .  A
O36         Cu38   2.008       .  S
O36          C39   1.277       .  A
Cu37        Cu38   2.375       .  S
C39         C510   1.478       .  S
C40         C525   1.477       .  S
C41         C122   1.469       .  S
C42         C146   1.468       .  S
O43         Cu51   2.010   1_655  S
O43          C53   1.278       .  A
O44         Cu51   2.011       .  S
O44          C54   1.278       .  A
O45         Cu51   2.001       .  S
O45          C55   1.277       .  A
O46         Cu51   2.010       .  S
O46          C56   1.277       .  A
O47         Cu52   2.006       .  S
O47          C56   1.278       .  A
O48         Cu52   2.013       .  S
O48          C55   1.278       .  A
O49         Cu52   2.010       .  S
O49          C54   1.279       .  A
O50         Cu52   2.010   1_655  S
O50          C53   1.278       .  A
Cu51        Cu52   2.375       .  S
C53         C534   1.474       .  S
C54         C501   1.484       .  S
C55         C232   1.467       .  S
C56         C208   1.467   1_455  S
O57         Cu65   2.003       .  S
O57          C67   1.276       .  A
O58         Cu65   2.005       .  S
O58          C68   1.277       .  A
O59         Cu65   2.010       .  S
O59          C69   1.279       .  A
O60         Cu65   2.012       .  S
O60          C70   1.278       .  A
O61         Cu66   2.008       .  S
O61          C70   1.277       .  A
O62         Cu66   2.009       .  S
O62          C69   1.277       .  A
O63         Cu66   2.015       .  S
O63          C68   1.278       .  A
O64         Cu66   2.016       .  S
O64          C67   1.279       .  A
Cu65        Cu66   2.374       .  S
C67          C88   1.469       .  S
C68         C160   1.469       .  S
C69         C462   1.488       .  S
C70         C477   1.470       .  S
O71         Cu79   2.011       .  S
O71          C81   1.278       .  A
O72         Cu79   2.012   1_455  S
O72          C82   1.279       .  A
O73         Cu79   2.003       .  S
O73          C83   1.276       .  A
O74         Cu79   2.011       .  S
O74          C84   1.278       .  A
O75         Cu80   2.008       .  S
O75          C84   1.277       .  A
O76         Cu80   2.008       .  S
O76          C83   1.278       .  A
O77         Cu80   2.005   1_455  S
O77          C82   1.277       .  A
O78         Cu80   2.007       .  S
O78          C81   1.277       .  A
Cu79        Cu80   2.375       .  S
C81         C486   1.471       .  S
C82         C453   1.481       .  S
C83         C266   1.466   1_655  S
C84         C194   1.469       .  S
N85          N86   1.322       .  A
N85          C89   1.346       .  A
N85         Cu93   2.080       .  S
N86          C87   1.344       .  A
N86         Cu92   2.064   1_556  S
C87          C88   1.381       .  A
C87          H90   1.082       .  S
C88          C89   1.385       .  A
C89          H91   1.082       .  S
Cu92         N95   2.064       .  S
Cu93        N103   2.080       .  S
Cu94         N96   2.077       .  S
Cu94        N102   2.078       .  S
N95          N96   1.322       .  A
N95          C99   1.342       .  A
N96          C97   1.347       .  A
C97          C98   1.385       .  A
C97         H100   1.082       .  S
C98          C99   1.381       .  A
C99         H101   1.082       .  S
N102        N103   1.323   1_554  A
N102        C106   1.345       .  A
N103        C104   1.345       .  A
C104        C105   1.385       .  A
C104        H107   1.081       .  S
C105        C438   1.482       .  S
C105        C106   1.385   1_556  A
C106        H108   1.081       .  S
N109        N110   1.322       .  A
N109        C113   1.347       .  A
N109       Cu117   2.075       .  S
N110        C111   1.343       .  A
N110       Cu116   2.066       .  S
C111        C112   1.381       .  A
C111        H114   1.082       .  S
C112        C287   1.468       .  S
C112        C113   1.384       .  A
C113        H115   1.081       .  S
Cu116       N119   2.066   1_554  S
Cu117       N127   2.075       .  S
Cu118       N120   2.081       .  S
Cu118       N126   2.081       .  S
N119        N120   1.322       .  A
N119        C123   1.344       .  A
N120        C121   1.346       .  A
C121        C122   1.385       .  A
C121        H124   1.082       .  S
C122        C123   1.381       .  A
C123        H125   1.082       .  S
N126        N127   1.323   1_556  A
N126        C130   1.346       .  A
N127        C128   1.345       .  A
C128        C129   1.384   1_554  A
C128        H131   1.081       .  S
C129        C429   1.482       .  S
C129        C130   1.385       .  A
C130        H132   1.081       .  S
N133        N134   1.321       .  A
N133        C137   1.345       .  A
N133       Cu141   2.074       .  S
N134        C135   1.344       .  A
N134       Cu140   2.061       .  S
C135        C136   1.381       .  A
C135        H138   1.082       .  S
C136        C288   1.466       .  S
C136        C137   1.384       .  A
C137        H139   1.082       .  S
Cu140       N143   2.062       .  S
Cu141       N151   2.075       .  S
Cu142       N144   2.082       .  S
Cu142       N150   2.083       .  S
N143        N144   1.322       .  A
N143        C147   1.342       .  A
N144        C145   1.348       .  A
C145        C146   1.385       .  A
C145        H148   1.081       .  S
C146        C147   1.380       .  A
C147        H149   1.082       .  S
N150        N151   1.323       .  A
N150        C154   1.346       .  A
N151        C152   1.345       .  A
C152        C153   1.382       .  A
C152        H155   1.081       .  S
C153        C405   1.479       .  S
C153        C154   1.385       .  A
C154        H156   1.081       .  S
N157        N158   1.322       .  A
N157        C161   1.348       .  A
N157       Cu165   2.078       .  S
N158        C159   1.343       .  A
N158       Cu164   2.069       .  S
C159        C160   1.381       .  A
C159        H162   1.082       .  S
C160        C161   1.385       .  A
C161        H163   1.082       .  S
Cu164       N167   2.068       .  S
Cu165       N175   2.079       .  S
Cu166       N168   2.077       .  S
Cu166       N174   2.078       .  S
N167        N168   1.322       .  A
N167        C171   1.344       .  A
N168        C169   1.346       .  A
C169        C170   1.384       .  A
C169        H172   1.082       .  S
C170        C171   1.382       .  A
C171        H173   1.082       .  S
N174        N175   1.323       .  A
N174        C178   1.345       .  A
N175        C176   1.345       .  A
C176        C177   1.387       .  A
C176        H179   1.081       .  S
C177        C414   1.485       .  S
C177        C178   1.386       .  A
C178        H180   1.081       .  S
N181        N182   1.322       .  A
N181        C185   1.346       .  A
N181       Cu189   2.069       .  S
N182        C183   1.343       .  A
N182       Cu188   2.068       .  S
C183        C184   1.381       .  A
C183        H186   1.082       .  S
C184        C185   1.383       .  A
C185        H187   1.082       .  S
Cu188       N191   2.068       .  S
Cu189       N199   2.069       .  S
Cu190       N192   2.077       .  S
Cu190       N198   2.077       .  S
N191        N192   1.322       .  A
N191        C195   1.344       .  A
N192        C193   1.346       .  A
C193        C194   1.384       .  A
C193        H196   1.082       .  S
C194        C195   1.382       .  A
C195        H197   1.082       .  S
N198        N199   1.323       .  A
N198        C202   1.345       .  A
N199        C200   1.344       .  A
C200        C201   1.383       .  A
C200        H203   1.081       .  S
C201        C390   1.478       .  S
C201        C202   1.384       .  A
C202        H204   1.081       .  S
N205        N206   1.321       .  A
N205        C209   1.346       .  A
N205       Cu213   2.075       .  S
N206        C207   1.343       .  A
N206       Cu212   2.064       .  S
C207        C208   1.381       .  A
C207        H210   1.082       .  S
C208        C209   1.384       .  A
C209        H211   1.081       .  S
Cu212       N215   2.064       .  S
Cu213       N223   2.075       .  S
Cu214       N216   2.075       .  S
Cu214       N222   2.075       .  S
N215        N216   1.322       .  A
N215        C219   1.343       .  A
N216        C217   1.346       .  A
C217        C218   1.384       .  A
C217        H220   1.082       .  S
C218        C301   1.467       .  S
C218        C219   1.381       .  A
C219        H221   1.082       .  S
N222        N223   1.324       .  A
N222        C226   1.345       .  A
N223        C224   1.344       .  A
C224        C225   1.382       .  A
C224        H227   1.081       .  S
C225        C381   1.474       .  S
C225        C226   1.383       .  A
C226        H228   1.081       .  S
N229        N230   1.322       .  A
N229        C233   1.347       .  A
N229       Cu237   2.076       .  S
N230        C231   1.343       .  A
N230       Cu236   2.067       .  S
C231        C232   1.381       .  A
C231        H234   1.082       .  S
C232        C233   1.384       .  A
C233        H235   1.082       .  S
Cu236       N239   2.067   1_556  S
Cu237       N247   2.077       .  S
Cu238       N240   2.083       .  S
Cu238       N246   2.084       .  S
N239        N240   1.322   1_455  A
N239        C243   1.344   1_455  A
N240        C241   1.347       .  A
C241        C242   1.385       .  A
C241        H244   1.081       .  S
C242        C302   1.471       .  S
C242        C243   1.382       .  A
C243        H245   1.082       .  S
N246        N247   1.323   1_654  A
N246        C250   1.346       .  A
N247        C248   1.345       .  A
C248        C249   1.384   1_455  A
C248        H251   1.081       .  S
C249        C366   1.484       .  S
C249        C250   1.386   1_556  A
C250        H252   1.081       .  S
N253        N254   1.322       .  A
N253        C257   1.347       .  A
N253       Cu261   2.083       .  S
N254        C255   1.343       .  A
N254       Cu260   2.060   1_554  S
C255        C256   1.379       .  A
C255        H258   1.082       .  S
C256        C257   1.386       .  A
C257        H259   1.082       .  S
Cu260       N263   2.060       .  S
Cu261       N271   2.083       .  S
Cu262       N264   2.075       .  S
Cu262       N270   2.076       .  S
N263        N264   1.321       .  A
N263        C267   1.343       .  A
N264        C265   1.346       .  A
C265        C266   1.384       .  A
C265        H268   1.082       .  S
C266        C267   1.380       .  A
C267        H269   1.082       .  S
N270        N271   1.323   1_556  A
N270        C274   1.345       .  A
N271        C272   1.346       .  A
C272        C273   1.387   1_554  A
C272        H275   1.081       .  S
C273        C357   1.486       .  S
C273        C274   1.385       .  A
C274        H276   1.081       .  S
O277       Cu285   2.015       .  S
O277        C287   1.278       .  A
O278       Cu285   2.011       .  S
O278        C288   1.278       .  A
O279       Cu285   2.007       .  S
O279        C289   1.278       .  A
O280       Cu285   2.008       .  S
O280        C290   1.278       .  A
O281       Cu286   2.003       .  S
O281        C290   1.278       .  A
O282       Cu286   2.005       .  S
O282        C289   1.277       .  A
O283       Cu286   2.002       .  S
O283        C288   1.276       .  A
O284       Cu286   2.001       .  S
O284        C287   1.277       .  A
Cu285      Cu286   2.375       .  S
C289        C309   1.479       .  S
C290        C333   1.477       .  S
O291       Cu299   2.008       .  S
O291        C301   1.277       .  A
O292       Cu299   2.012       .  S
O292        C302   1.278       .  A
O293       Cu299   2.005   1_455  S
O293        C303   1.277       .  A
O294       Cu299   2.007       .  S
O294        C304   1.277       .  A
O295       Cu300   2.008       .  S
O295        C304   1.279       .  A
O296       Cu300   2.007   1_455  S
O296        C303   1.278       .  A
O297       Cu300   2.011       .  S
O297        C302   1.277       .  A
O298       Cu300   2.007       .  S
O298        C301   1.278       .  A
Cu299      Cu300   2.372       .  S
C303        C318   1.476       .  S
C304        C342   1.490       .  S
C305        C306   1.401       .  A
C305        C310   1.398       .  A
C305        H315   1.084       .  S
C306        C311   1.477       .  S
C306        C307   1.411       .  A
C307        C308   1.399       .  A
C307        S312   1.804       .  S
C308        C309   1.405       .  A
C308        H313   1.084       .  S
C309        C310   1.416       .  A
C310        S314   1.803       .  S
C311        C316   1.409       .  A
C311        C320   1.401       .  A
S312        H328   1.406       .  S
S314        H325   1.407       .  S
C316        C317   1.402       .  A
C316        S321   1.807       .  S
C317        C318   1.405       .  A
C317        H322   1.083       .  S
C318        C319   1.414       .  A
C319        C320   1.398       .  A
C319        S323   1.803       .  S
C320        H324   1.084       .  S
S321        H326   1.407       .  S
S323        H327   1.407       .  S
C329        C330   1.403       .  A
C329        C334   1.399       .  A
C329        H339   1.084       .  S
C330        C335   1.481       .  S
C330        C331   1.412       .  A
C331        C332   1.398       .  A
C331        S336   1.804       .  S
C332        C333   1.404       .  A
C332        H337   1.084       .  S
C333        C334   1.415       .  A
C334        S338   1.803       .  S
C335        C340   1.408       .  A
C335        C344   1.400       .  A
S336        H352   1.406       .  S
S338        H349   1.408       .  S
C340        C341   1.402       .  A
C340        S345   1.808       .  S
C341        C342   1.409       .  A
C341        H346   1.082       .  S
C342        C343   1.420       .  A
C343        C344   1.398       .  A
C343        S347   1.802       .  S
C344        H348   1.084       .  S
S345        H350   1.407       .  S
S347        H351   1.408       .  S
C353        C354   1.401   1_554  A
C353        C358   1.400       .  A
C353        H363   1.084       .  S
C354        C359   1.479       .  S
C354        C355   1.411   1_455  A
C355        C356   1.400       .  A
C355        S360   1.805       .  S
C356        C357   1.406   1_655  A
C356        H361   1.083       .  S
C357        C358   1.417   1_556  A
C358        S362   1.802       .  S
C359        C364   1.408       .  A
C359        C368   1.401   1_456  A
S360        H376   1.404       .  S
S362        H373   1.407       .  S
C364        C365   1.403       .  A
C364        S369   1.806       .  S
C365        C366   1.406   1_455  A
C365        H370   1.082       .  S
C366        C367   1.416   1_556  A
C367        C368   1.400       .  A
C367        S371   1.802       .  S
C368        H372   1.084       .  S
S369        H374   1.407       .  S
S371        H375   1.407       .  S
C377        C378   1.401       .  A
C377        C382   1.399       .  A
C377        H387   1.084       .  S
C378        C383   1.475   1_545  S
C378        C379   1.411   1_655  A
C379        C380   1.398       .  A
C379        S384   1.805       .  S
C380        C381   1.403   1_455  A
C380        H385   1.084       .  S
C381        C382   1.413       .  A
C382        S386   1.803       .  S
C383        C388   1.408       .  A
C383        C392   1.400   1_655  A
S384        H400   1.405   1_545  S
S386        H397   1.406       .  S
C388        C389   1.402       .  A
C388        S393   1.806       .  S
C389        C390   1.405       .  A
C389        H394   1.083       .  S
C390        C391   1.415   1_655  A
C391        C392   1.398       .  A
C391        S395   1.803       .  S
C392        H396   1.084       .  S
S393        H398   1.407       .  S
S395        H399   1.407       .  S
C401        C402   1.401       .  A
C401        C406   1.399       .  A
C401        H411   1.084       .  S
C402        C407   1.478       .  S
C402        C403   1.412       .  A
C403        C404   1.401       .  A
C403        S408   1.804       .  S
C404        C405   1.405       .  A
C404        H409   1.084       .  S
C405        C406   1.414       .  A
C406        S410   1.803       .  S
C407        C412   1.407       .  A
C407        C416   1.400       .  A
S408        H424   1.405       .  S
S410        H421   1.407       .  S
C412        C413   1.403       .  A
C412        S417   1.806       .  S
C413        C414   1.407       .  A
C413        H418   1.082       .  S
C414        C415   1.417       .  A
C415        C416   1.399       .  A
C415        S419   1.802       .  S
C416        H420   1.084       .  S
S417        H422   1.407       .  S
S419        H423   1.407       .  S
C425        C426   1.400   1_554  A
C425        C430   1.399       .  A
C425        H435   1.084       .  S
C426        C431   1.478   1_545  S
C426        C427   1.412       .  A
C427        C428   1.401       .  A
C427        S432   1.805       .  S
C428        C429   1.405       .  A
C428        H433   1.084       .  S
C429        C430   1.416   1_556  A
C430        S434   1.803       .  S
C431        C436   1.408       .  A
C431        C440   1.401   1_556  A
S432        H448   1.404   1_545  S
S434        H445   1.407       .  S
C436        C437   1.403       .  A
C436        S441   1.806       .  S
C437        C438   1.405       .  A
C437        H442   1.082       .  S
C438        C439   1.416   1_556  A
C439        C440   1.400       .  A
C439        S443   1.802       .  S
C440        H444   1.084       .  S
S441        H446   1.407       .  S
S443        H447   1.407       .  S
C449        C450   1.401       .  A
C449        C454   1.399       .  A
C449        H459   1.084       .  S
C450        C455   1.478       .  S
C450        C451   1.411       .  A
C451        C452   1.399       .  A
C451        S456   1.804       .  S
C452        C453   1.405       .  A
C452        H457   1.084       .  S
C453        C454   1.417       .  A
C454        S458   1.803       .  S
C455        C460   1.407       .  A
C455        C464   1.400       .  A
S456        H472   1.405       .  S
S458        H469   1.408       .  S
C460        C461   1.402       .  A
C460        S465   1.807       .  S
C461        C462   1.408       .  A
C461        H466   1.082       .  S
C462        C463   1.420       .  A
C463        C464   1.400       .  A
C463        S467   1.802       .  S
C464        H468   1.084       .  S
S465        H470   1.407       .  S
S467        H471   1.408       .  S
C473        C474   1.404       .  A
C473        C478   1.398       .  A
C473        H483   1.084       .  S
C474        C479   1.484       .  S
C474        C475   1.415       .  A
C475        C476   1.401       .  A
C475        S480   1.804       .  S
C476        C477   1.402       .  A
C476        H481   1.084       .  S
C477        C478   1.410       .  A
C478        S482   1.803       .  S
C479        C484   1.412       .  A
C479        C488   1.404       .  A
S480        H496   1.406       .  S
S482        H493   1.406       .  S
C484        C485   1.403       .  A
C484        S489   1.807       .  S
C485        C486   1.402       .  A
C485        H490   1.083       .  S
C486        C487   1.411       .  A
C487        C488   1.399       .  A
C487        S491   1.804       .  S
C488        H492   1.084       .  S
S489        H494   1.407       .  S
S491        H495   1.406       .  S
C497        C498   1.401       .  A
C497        C502   1.400       .  A
C497        H507   1.084       .  S
C498        C503   1.479       .  S
C498        C499   1.411       .  A
C499        C500   1.399       .  A
C499        S504   1.805       .  S
C500        C501   1.406       .  A
C500        H505   1.084       .  S
C501        C502   1.417       .  A
C502        S506   1.802       .  S
C503        C508   1.409       .  A
C503        C512   1.401       .  A
S504        H520   1.405       .  S
S506        H517   1.407       .  S
C508        C509   1.404       .  A
C508        S513   1.806       .  S
C509        C510   1.405       .  A
C509        H514   1.083       .  S
C510        C511   1.414       .  A
C511        C512   1.398       .  A
C511        S515   1.803       .  S
C512        H516   1.084       .  S
S513        H518   1.407       .  S
S515        H519   1.407       .  S
C521        C522   1.403       .  A
C521        C526   1.399       .  A
C521        H531   1.084       .  S
C522        C527   1.480       .  S
C522        C523   1.412       .  A
C523        C524   1.400       .  A
C523        S528   1.804       .  S
C524        C525   1.404       .  A
C524        H529   1.084       .  S
C525        C526   1.414       .  A
C526        S530   1.803       .  S
C527        C532   1.410       .  A
C527        C536   1.402       .  A
S528        H544   1.405       .  S
S530        H541   1.407       .  S
C532        C533   1.403       .  A
C532        S537   1.807       .  S
C533        C534   1.403       .  A
C533        H538   1.083       .  S
C534        C535   1.413       .  A
C535        C536   1.399       .  A
C535        S539   1.803       .  S
C536        H540   1.084       .  S
S537        H542   1.407       .  S
S539        H543   1.407       .  S
C545        C546   1.401       .  A
C545        C550   1.399       .  A
C545        H555   1.084       .  S
C546        C551   1.479       .  S
C546        C547   1.412       .  A
C547        C548   1.400       .  A
C547        S552   1.805       .  S
C548        C549   1.406       .  A
C548        H553   1.084       .  S
C549        C550   1.416       .  A
C550        S554   1.803       .  S
C551        C556   1.409       .  A
C551        C560   1.402       .  A
S552        H568   1.405       .  S
S554        H565   1.408       .  S
C556        C557   1.403       .  A
C556        S561   1.806       .  S
C557        C558   1.405       .  A
C557        H562   1.083       .  S
C558        C559   1.414       .  A
C559        C560   1.399       .  A
C559        S563   1.803       .  S
C560        H564   1.084       .  S
S561        H566   1.407       .  S
S563        H567   1.407       .  S
C569        C570   1.403       .  A
C569        C574   1.400       .  A
C569        H579   1.084       .  S
C570        C575   1.480       .  S
C570        C571   1.412       .  A
C571        C572   1.399       .  A
C571        S576   1.804       .  S
C572        C573   1.404       .  A
C572        H577   1.084       .  S
C573        C574   1.414       .  A
C574        S578   1.803       .  S
C575        C580   1.409       .  A
C575        C584   1.402       .  A
S576        H592   1.406       .  S
S578        H589   1.407       .  S
C580        C581   1.402       .  A
C580        S585   1.807       .  S
C581        C582   1.406       .  A
C581        H586   1.083       .  S
C582        C583   1.414       .  A
C583        C584   1.399       .  A
C583        S587   1.803       .  S
C584        H588   1.084       .  S
S585        H590   1.407       .  S
S587        H591   1.407       .  S
