geometry optimzed in LAMMPS
_audit_creation_date              2020-12-01 
_audit_creation_method            'lammps2cif' 
_symmetry_space_group_name_H-M    'P1' 
_symmetry_Int_Tables_number       1 
_symmetry_cell_setting            triclinic 
loop_ 
_symmetry_equiv_pos_as_xyz 
  x,y,z 
_cell_length_a                    40.66152868 
_cell_length_b                    35.23574112865032 
_cell_length_c                    35.145340205656105 
_cell_angle_alpha                 89.9859803016894 
_cell_angle_beta                  90.2692778538352 
_cell_angle_gamma                 115.98836556595641 
loop_ 
_atom_site_label 
_atom_site_type_symbol 
_atom_site_fract_x 
_atom_site_fract_y 
_atom_site_fract_z 
_atom_site_charge 
Zr1        Zr  0.32387630  0.16231255  0.82505441     2.17500
O2          O  0.32434144  0.20302944  0.88141440    -0.51700
O3          O  0.33339248  0.10897619  0.86172626    -0.74900
O4          O  0.26455034  0.13471850  0.85619521    -0.81700
O5          O  0.42563817  0.23449640  0.80918271    -0.83500
O6          O  0.21897714  0.10873285  0.81215523    -0.79100
O7          O  0.38177642  0.20706768  0.85471537    -0.90700
O8          O  0.34086655  0.06463940  0.81952019    -0.76700
O9          O  0.28583506  0.09984905  0.79123801    -0.86200
O10         O  0.36502594  0.14421805  0.79018020    -0.85900
O11         O  0.28543689  0.18213008  0.78558636    -0.72600
O12         O  0.35749277  0.22146213  0.78440942    -0.84800
Zr13       Zr  0.32178616  0.15908863  0.67438523     2.26400
Zr14       Zr  0.24834341  0.11942680  0.75035634     2.06300
Zr15       Zr  0.39791464  0.20180462  0.74883505     2.10000
Zr16       Zr  0.32694602  0.08203106  0.75614575     1.78800
O17         O  0.44257159  0.27380629  0.73521123    -0.93600
O18         O  0.27608439  0.01340095  0.76833683    -0.41400
O19         O  0.36019612  0.13945684  0.71395699    -0.78000
O20         O  0.28827086  0.09938443  0.71468284    -0.96700
O21         O  0.28120876  0.17776020  0.70912893    -0.90000
O22         O  0.36031017  0.22086185  0.70899288    -0.92800
C23         C  0.34110475  0.07823551  0.85349654     1.00900
C24         C  0.41447237  0.23074793  0.84376174     1.13900
C25         C  0.23056391  0.11738814  0.84658719     1.04600
O26         O  0.20497203  0.04504161  0.75227767    -0.95000
O27         O  0.21804098  0.09873268  0.68867928    -0.90700
O28         O  0.26197617  0.12739864  0.64364267    -0.83900
C29         C  0.22851218  0.10599690  0.65387258     1.11300
O30         O  0.30149612  0.27710467  0.79134556    -0.97000
Zr31       Zr  0.31929040  0.23967758  0.74334686     1.88900
O32         O  0.32946840  0.22186350  0.63849630    -0.73600
O33         O  0.20213519  0.14573667  0.74610014    -0.52900
O34         O  0.26541894  0.24877570  0.72424476    -0.97500
O35         O  0.36850875  0.30893995  0.75788315    -0.54800
O36         O  0.33396838  0.27275902  0.68077007    -0.74100
C37         C  0.33586989  0.26004607  0.64690777     0.98200
O38         O  0.31722524  0.11276781  0.62072156    -0.62900
O39         O  0.44474643  0.17801746  0.76206111    -0.57700
O40         O  0.37934319  0.17862832  0.64230623    -0.94400
O41         O  0.42425034  0.19773071  0.68729397    -0.92900
O42         O  0.37961009  0.06721851  0.74781929    -0.93200
O43         O  0.32272966  0.03302616  0.70543811    -0.92000
C44         C  0.41243708  0.18919663  0.65280816     1.17100
H45         H  0.38249315  0.14039275  0.80652107     0.33000
H46         H  0.27386940  0.07501968  0.69917758     0.43900
H47         H  0.37693429  0.24312977  0.69290221     0.37400
H48         H  0.27013841  0.19018132  0.80136666     0.33900
H49         H  0.28782716  0.99475539  0.77451194     0.25700
H50         H  0.17941664  0.12240574  0.75570318     0.31600
H51         H  0.26069569  0.23934935  0.69739280     0.37500
H52         H  0.39827388  0.08648762  0.76578151     0.32000
H53         H  0.44263304  0.15834151  0.74106142     0.30800
H54         H  0.46589684  0.27184663  0.73146438     0.32500
H55         H  0.36264972  0.32900181  0.74288920     0.31500
H56         H  0.32211952  0.04784337  0.68169707     0.35500
H57         H  0.33806279  0.10555632  0.62353771     0.28200
H58         H  0.31565171  0.18245991  0.90257231     0.32400
H59         H  0.30174122  0.30216666  0.77834226     0.35300
H60         H  0.46820925  0.20307518  0.75737664     0.27900
H61         H  0.29568593  0.08571987  0.62605852     0.40800
H62         H  0.20769092  0.03543456  0.77807070     0.30800
H63         H  0.26562102  0.01674118  0.79277982     0.38500
H64         H  0.39022960  0.30904215  0.74518741     0.30900
H65         H  0.20909562  0.16797599  0.76585086     0.30400
H66         H  0.30467236  0.21198602  0.87725198     0.30600
C67         C  0.46972254  0.48449537  0.00309772     0.79800
N68         N  0.00007443  0.01998810  0.99888334    -0.78500
C69         C  0.03248667  0.01743803  0.99632554     0.82300
N70         N  0.03397562  0.48016391  0.99651542    -0.78400
C71         C  0.50232342  0.44358925  0.99979667     0.82400
N72         N  0.47021609  0.44626411  0.00265879    -0.80100
C73         C  0.37574966  0.46154160  0.03227132     0.79800
N74         N  0.36611944  0.48195084  0.00481261    -0.78500
C75         C  0.38878711  0.00372209  0.97666139     0.82300
N76         N  0.42300741  0.00565693  0.97647988    -0.78400
C77         C  0.43434432  0.48608539  0.00502871     0.82400
N78         N  0.40985556  0.46348494  0.03212874    -0.80100
C79         C  0.12548076  0.09243510  0.96663584     0.79800
N80         N  0.13470604  0.12148081  0.99494708    -0.78500
C81         C  0.11100367  0.11786722  0.02327387     0.82300
N82         N  0.07721160  0.08457232  0.02318815    -0.78400
C83         C  0.06743064  0.05540795  0.99475859     0.82400
N84         N  0.09175263  0.05913619  0.96686418    -0.80100
C85         C  0.01547500  0.35184328  0.02905093     0.79800
N86         N  0.01573238  0.39051803  0.02878755    -0.78500
C87         C  0.00297640  0.40344538  0.99821103     0.82300
N88         N  0.49041030  0.37714402  0.96845338    -0.78400
C89         C  0.49038188  0.33858419  0.96813832     0.82400
N90         N  0.00289649  0.32650290  0.99793503    -0.80100
Zr91       Zr  0.17857279  0.33938546  0.32413180     2.17500
O92         O  0.17668734  0.29797494  0.38037671    -0.51700
O93         O  0.17023068  0.39383679  0.36014465    -0.74900
O94         O  0.23791223  0.36515369  0.35520551    -0.81700
O95         O  0.07710348  0.26790030  0.30910045    -0.83500
O96         O  0.28336638  0.38903236  0.31146997    -0.79100
O97         O  0.12130712  0.29616595  0.35456496    -0.90700
O98         O  0.16243627  0.43770030  0.31752696    -0.76700
O99         O  0.21812530  0.40055360  0.29017679    -0.86200
O100        O  0.13847645  0.35939643  0.28912569    -0.85900
O101        O  0.21466068  0.31607800  0.28510456    -0.72600
O102        O  0.14289358  0.28029826  0.28422592    -0.84800
Zr103      Zr  0.17820322  0.34047718  0.17416782     2.26400
Zr104      Zr  0.25314959  0.37759096  0.24956971     2.06300
Zr105      Zr  0.10342592  0.30148771  0.24881961     2.10000
Zr106      Zr  0.17820191  0.42066136  0.25509161     1.78800
O107        O  0.05880415  0.23036288  0.23193434    -0.93600
O108        O  0.23013751  0.48694451  0.27225080    -0.41400
O109        O  0.14213387  0.36309253  0.21378395    -0.78000
O110        O  0.21456322  0.40003773  0.21374055    -0.96700
O111        O  0.21776480  0.31940853  0.20867824    -0.90000
O112        O  0.13866478  0.27963004  0.20877511    -0.92800
C113        C  0.16198877  0.42412506  0.35153689     1.00900
C114        C  0.08866482  0.27185410  0.34366947     1.13900
C115        C  0.27180414  0.38107945  0.34588974     1.04600
O116        O  0.29816190  0.45131830  0.24974627    -0.95000
O117        O  0.28195671  0.39421003  0.18736086    -0.90700
O118        O  0.23704155  0.36744581  0.14267776    -0.83900
C119        C  0.27084085  0.38668475  0.15266013     1.11300
O120        O  0.18754992  0.21524682  0.29232031    -0.97000
Zr121      Zr  0.17844469  0.25872592  0.24323224     1.88900
O122        O  0.16849881  0.27757541  0.13793258    -0.73600
O123        O  0.29812888  0.34935109  0.24738149    -0.52900
O124        O  0.23249096  0.24833589  0.22861851    -0.97500
O125        O  0.12715758  0.19024261  0.25487618    -0.54800
O126        O  0.16398343  0.22664796  0.18010912    -0.74100
C127        C  0.16200477  0.23943286  0.14629611     0.98200
O128        O  0.18242115  0.38706499  0.12096464    -0.62900
O129        O  0.05556871  0.32213897  0.26585233    -0.57700
O130        O  0.12032899  0.32147158  0.14226872    -0.94400
O131        O  0.07767616  0.30973960  0.18824236    -0.92900
O132        O  0.12902823  0.44062972  0.24198565    -0.93200
O133        O  0.18922471  0.47246304  0.20492233    -0.92000
C134        C  0.08835857  0.31505529  0.15342450     1.17100
H135        H  0.12131286  0.36383962  0.30519586     0.33000
H136        H  0.22944662  0.42374936  0.19788421     0.43900
H137        H  0.12154642  0.25765405  0.19260916     0.37400
H138        H  0.22943873  0.30717521  0.30101299     0.33900
H139        H  0.21929429  0.50668322  0.27740891     0.25700
H140        H  0.32173216  0.37361113  0.25372092     0.31600
H141        H  0.22338203  0.22266051  0.21252273     0.37500
H142        H  0.11090871  0.42702254  0.26233919     0.32000
H143        H  0.06285656  0.34986920  0.25344997     0.30800
H144        H  0.03474542  0.23044369  0.23585673     0.32500
H145        H  0.12965212  0.17101385  0.23579881     0.31500
H146        H  0.18213667  0.45564278  0.18115145     0.35500
H147        H  0.16321150  0.39659947  0.12558980     0.28200
H148        H  0.18489271  0.31833564  0.40178196     0.32400
H149        H  0.19036422  0.19229696  0.27860722     0.35300
H150        H  0.03371765  0.30258689  0.25144325     0.27900
H151        H  0.20550331  0.41289148  0.12509014     0.40800
H152        H  0.28398814  0.46732489  0.24366017     0.30800
H153        H  0.23833223  0.48193540  0.29753245     0.38500
H154        H  0.10533402  0.19366528  0.24653156     0.30300
H155        H  0.29268130  0.33033250  0.26961921     0.30400
H156        H  0.19629907  0.28883673  0.37690335     0.30600
C157        C  0.03035618  0.01631553  0.50089952     0.79800
N158        N  0.00003228  0.48183022  0.50049884    -0.78500
C159        C  0.46858713  0.48438878  0.50023278     0.82300
N160        N  0.46643686  0.02265126  0.50189026    -0.78400
C161        C  0.99812215  0.05800352  0.49972813     0.82400
N162        N  0.03024427  0.05485374  0.49976377    -0.80100
C163        C  0.12237920  0.03125398  0.53204417     0.79800
N164        N  0.13144626  0.01213758  0.50327505    -0.78500
C165        C  0.11055392  0.49508797  0.47374503     0.82300
N166        N  0.07707912  0.49528600  0.47308653    -0.78400
C167        C  0.06548380  0.01364065  0.50193653     0.82400
N168        N  0.08926181  0.03208471  0.53121577    -0.80100
C169        C  0.48610746  0.15198137  0.52985964     0.79800
N170        N  0.48610828  0.11338560  0.53047611    -0.78500
C171        C  0.49855004  0.09968558  0.50014620     0.82300
N172        N  0.01158783  0.12517616  0.46811092    -0.78400
C173        C  0.01139137  0.16367634  0.46717796     0.82400
N174        N  0.49826592  0.17651565  0.49837220    -0.80100
C175        C  0.37649028  0.40891103  0.46797529     0.79800
N176        N  0.40973235  0.44279243  0.46970413    -0.78500
C177        C  0.43347900  0.44655767  0.49839456     0.82300
N178        N  0.42361408  0.41661075  0.52613748    -0.78400
C179        C  0.39011724  0.38269056  0.52484342     0.82400
N180        N  0.36695757  0.37921015  0.49571360    -0.80100
C181        C  0.02461329  0.17557557  0.39767390    -0.21700
C182        C  0.02742590  0.19216094  0.43455701    -0.09700
C183        C  0.04722911  0.23595536  0.44021527     0.29100
C184        C  0.06558057  0.26214143  0.40990225    -0.21700
C185        C  0.06376634  0.24537443  0.37331442    -0.09800
C186        C  0.04221558  0.20203697  0.36710320     0.29100
F187        F  0.04028299  0.18487238  0.33209766    -0.20300
H188        H  0.00928501  0.14197982  0.39265878     0.17500
H189        H  0.08224442  0.29546317  0.41524101     0.17500
F190        F  0.05085749  0.25316204  0.47544578    -0.20300
C191        C  0.16269748  0.44528260  0.41965228    -0.21700
C192        C  0.14918589  0.44295367  0.38251178    -0.09700
C193        C  0.12167779  0.45636433  0.37578641     0.29100
C194        C  0.10842922  0.47215475  0.40562802    -0.21700
C195        C  0.12265672  0.47551075  0.44263818    -0.09800
C196        C  0.14994571  0.46169671  0.44931448     0.29100
F197        F  0.16407755  0.46343151  0.48469235    -0.20300
H198        H  0.18345837  0.43465467  0.42571437     0.17500
H199        H  0.08770193  0.98497225  0.39872696     0.17500
F200        F  0.10680172  0.45311618  0.34057083    -0.20300
C201        C  0.31318583  0.37678195  0.44183092    -0.21700
C202        C  0.35029511  0.40412053  0.43672711    -0.09700
C203        C  0.36153296  0.42511122  0.40159505     0.29100
C204        C  0.33608026  0.41754974  0.37201496    -0.21700
C205        C  0.29890943  0.38978868  0.37719561    -0.09800
C206        C  0.28783227  0.36973155  0.41273185     0.29100
F207        F  0.25256853  0.34216879  0.41940667    -0.20300
H208        H  0.30354445  0.36043428  0.46856187     0.17500
H209        H  0.34546160  0.43356516  0.34510295     0.17500
F210        F  0.39710342  0.45216710  0.39542909    -0.20300
C211        C  0.04937287  0.34708078  0.12883273    -0.21700
C212        C  0.06357758  0.31767913  0.12413585    -0.09700
C213        C  0.05877960  0.29650145  0.08920735     0.29100
C214        C  0.04154693  0.30631962  0.05881566    -0.21700
C215        C  0.02955184  0.33799795  0.06261671    -0.09800
C216        C  0.03271166  0.35746120  0.09838957     0.29100
F217        F  0.02053518  0.38726873  0.10389463    -0.20300
H218        H  0.05313446  0.36391412  0.15552262     0.17500
H219        H  0.03908940  0.29043545  0.03183206     0.17500
F220        F  0.07160314  0.26717243  0.08425113    -0.20300
C221        C  0.16049704  0.22046922  0.07763139    -0.21700
C222        C  0.14948252  0.20784288  0.11516570    -0.09700
C223        C  0.12453815  0.16550558  0.12211132     0.29100
C224        C  0.11133629  0.13656683  0.09202606    -0.21700
C225        C  0.12305471  0.14910153  0.05463466    -0.09800
C226        C  0.14783779  0.19140834  0.04772305     0.29100
F227        F  0.15943055  0.20493239  0.01190398    -0.20300
H228        H  0.17921279  0.25292995  0.07142853     0.17500
H229        H  0.09239167  0.10414909  0.09806703     0.17500
F230        F  0.11198941  0.15231354  0.15774967    -0.20300
C231        C  0.28676200  0.39876587  0.08362627    -0.21700
C232        C  0.29848069  0.40209675  0.12177041    -0.09700
C233        C  0.33641071  0.42178703  0.12957045     0.29100
C234        C  0.36152736  0.43947600  0.10004806    -0.21700
C235        C  0.34943916  0.43824498  0.06240488    -0.09800
C236        C  0.31186024  0.41662507  0.05428366     0.29100
F237        F  0.29932157  0.41273086  0.01793578    -0.20300
H238        H  0.25794449  0.38319340  0.07637381     0.17500
H239        H  0.39042919  0.45565403  0.10684972     0.17500
F240        F  0.34938890  0.42490198  0.16566275    -0.20300
C241        C  0.45758886  0.16472751  0.63002678    -0.21700
C242        C  0.43739873  0.18770128  0.62315512    -0.09700
C243        C  0.43618212  0.20207939  0.58607404     0.29100
C244        C  0.45384499  0.19227756  0.55626308    -0.21700
C245        C  0.47178258  0.16660988  0.56258303    -0.09800
C246        C  0.47413910  0.15360318  0.59998882     0.29100
F247        F  0.98890004  0.12630782  0.60467356    -0.20300
H248        H  0.45837968  0.15281512  0.65827382     0.17500
H249        H  0.45170102  0.20280009  0.52779626     0.17500
F250        F  0.41665587  0.22411371  0.57840532    -0.20300
C251        C  0.33835626  0.05571380  0.92175836    -0.21700
C252        C  0.35259755  0.05838301  0.88496451    -0.09700
C253        C  0.37926032  0.04362223  0.87890586     0.29100
C254        C  0.39131505  0.02676586  0.90897197    -0.21700
C255        C  0.37667566  0.02342149  0.94560346    -0.09800
C256        C  0.34983711  0.03793028  0.95169623     0.29100
F257        F  0.33519358  0.03576596  0.98672332    -0.20300
H258        H  0.31803619  0.06709930  0.92728171     0.17500
H259        H  0.40807650  0.50815158  0.90295127     0.17500
F260        F  0.39456571  0.04657802  0.84412717    -0.20300
C261        C  0.45906839  0.30073147  0.86762840    -0.21700
C262        C  0.44001567  0.25707061  0.87324054    -0.09700
C263        C  0.44116309  0.24003192  0.90910111     0.29100
C264        C  0.45947408  0.26666077  0.93941545    -0.21700
C265        C  0.47608740  0.31068266  0.93464672    -0.09800
C266        C  0.47665003  0.32749280  0.89813269     0.29100
F267        F  0.49320704  0.36980560  0.89208127    -0.20300
H268        H  0.45828974  0.31435768  0.84019303     0.17500
H269        H  0.45888834  0.25290112  0.96711621     0.17500
F270        F  0.42343815  0.19774992  0.91510295    -0.20300
C271        C  0.13744825  0.05593563  0.59991572    -0.21700
C272        C  0.14911127  0.05154052  0.56328514    -0.09700
C273        C  0.18684648  0.06586879  0.55683584     0.29100
C274        C  0.21207486  0.08382602  0.58627390    -0.21700
C275        C  0.20062302  0.08779056  0.62310109    -0.09800
C276        C  0.16283818  0.07357858  0.62967371     0.29100
F277        F  0.15035243  0.07698940  0.66464209    -0.20300
H278        H  0.10858938  0.04503642  0.60570343     0.17500
H279        H  0.24081056  0.09420756  0.58015006     0.17500
F280        F  0.19968491  0.06318604  0.52183946    -0.20300
C281        C  0.38784835  0.36326782  0.59369218    -0.21700
C282        C  0.37747051  0.35094727  0.55584953    -0.09700
C283        C  0.35292289  0.30859091  0.54826354     0.29100
C284        C  0.33906526  0.27944095  0.57796308    -0.21700
C285        C  0.34877980  0.29189631  0.61592907    -0.09800
C286        C  0.37350454  0.33426747  0.62350018     0.29100
F287        F  0.38476785  0.34750273  0.65958261    -0.20300
H288        H  0.40655334  0.39566506  0.60031361     0.17500
H289        H  0.32060790  0.24698645  0.57122109     0.17500
F290        F  0.34277959  0.29507284  0.51201923    -0.20300
C291        C  0.14091576  0.07479689  0.90178066    -0.21700
C292        C  0.15235212  0.09705978  0.93631728    -0.09700
C293        C  0.18976229  0.12445349  0.94129772     0.29100
C294        C  0.21472348  0.12977653  0.91235670    -0.21700
C295        C  0.20331318  0.10849718  0.87745257    -0.09800
C296        C  0.16599039  0.08060282  0.87248240     0.29100
F297        F  0.15362330  0.05888454  0.83946500    -0.20300
H298        H  0.11237699  0.05344276  0.89709617     0.17500
H299        H  0.24312840  0.15155544  0.91715194     0.17500
F300        F  0.20259155  0.14631899  0.97416424    -0.20300
Zr301      Zr  0.32458417  0.66043025  0.82532755     2.17500
O302        O  0.32500335  0.70159720  0.88133728    -0.51700
O303        O  0.33428255  0.60747384  0.86180806    -0.74900
O304        O  0.26607253  0.63195241  0.85780339    -0.81700
O305        O  0.42595830  0.73391320  0.80923379    -0.83500
O306        O  0.22020125  0.60576710  0.81413433    -0.79100
O307        O  0.38236595  0.70462014  0.85472581    -0.90700
O308        O  0.34136667  0.56299651  0.81952831    -0.76700
O309        O  0.28599062  0.59832023  0.79155251    -0.86200
O310        O  0.36554354  0.64234268  0.78997695    -0.85900
O311        O  0.28612633  0.68104253  0.78687569    -0.72600
O312        O  0.35872347  0.71973711  0.78527441    -0.84800
Zr313      Zr  0.32194218  0.65841868  0.67539290     2.26400
Zr314      Zr  0.24856628  0.61875615  0.75146097     2.06300
Zr315      Zr  0.39862506  0.70025979  0.74888541     2.10000
Zr316      Zr  0.32676082  0.58026229  0.75623412     1.78800
O317        O  0.44271858  0.77179078  0.73285220    -0.93600
O318        O  0.27581603  0.51234331  0.77051797    -0.41400
O319        O  0.36031018  0.63796798  0.71425003    -0.78000
O320        O  0.28821443  0.59858828  0.71546960    -0.96700
O321        O  0.28178352  0.67757036  0.71068794    -0.90000
O322        O  0.36099385  0.72008906  0.70977895    -0.92800
C323        C  0.34186661  0.57670236  0.85355032     1.00900
C324        C  0.41480955  0.72926048  0.84389552     1.13900
C325        C  0.23203947  0.61422022  0.84855272     1.04600
O326        O  0.20346539  0.54508278  0.75147306    -0.95000
O327        O  0.21826983  0.59897175  0.68951697    -0.90700
O328        O  0.26240896  0.62715306  0.64467221    -0.83900
C329        C  0.22888556  0.60619877  0.65471929     1.11300
O330        O  0.31203876  0.77928638  0.79731059    -0.97000
Zr331      Zr  0.32072526  0.73894230  0.74529745     1.88900
O332        O  0.32840209  0.72064550  0.63946511    -0.73600
O333        O  0.20324119  0.64651362  0.75012516    -0.52900
O334        O  0.26785003  0.75279761  0.73400934    -0.97500
O335        O  0.37177975  0.80844538  0.75408131    -0.54800
O336        O  0.33047945  0.77007293  0.68203176    -0.74100
C337        C  0.33288291  0.75813295  0.64803946     0.98200
O338        O  0.31706378  0.61098198  0.62259584    -0.62900
O339        O  0.44709762  0.67933050  0.76276805    -0.57700
O340        O  0.37901168  0.67915404  0.64191446    -0.94400
O341        O  0.42327057  0.69375699  0.68704060    -0.92900
O342        O  0.37830040  0.56343435  0.74738763    -0.93200
O343        O  0.31867508  0.53101849  0.70441426    -0.92000
C344        C  0.41165022  0.68722197  0.65237897     1.17100
H345        H  0.38303851  0.63829980  0.80610150     0.33000
H346        H  0.27363697  0.57440724  0.69984441     0.43900
H347        H  0.37698315  0.74247872  0.69336966     0.37400
H348        H  0.27106411  0.68910439  0.80301884     0.33900
H349        H  0.28711476  0.49265311  0.77324985     0.25700
H350        H  0.17939446  0.62120372  0.75147168     0.31600
H351        H  0.25005061  0.73646574  0.75383644     0.37500
H352        H  0.39162432  0.58046142  0.72519791     0.32000
H353        H  0.44076432  0.65346861  0.74744435     0.30800
H354        H  0.46686123  0.77267739  0.73884628     0.32500
H355        H  0.38685856  0.81307286  0.73095492     0.31500
H356        H  0.32601444  0.54888505  0.68133867     0.35500
H357        H  0.33837866  0.60459171  0.62516235     0.28200
H358        H  0.31743533  0.68146114  0.90286182     0.32400
H359        H  0.32409664  0.77323173  0.81947867     0.35300
H360        H  0.46909526  0.70102274  0.75031377     0.27900
H361        H  0.29601698  0.58381424  0.62884498     0.40800
H362        H  0.21093284  0.53211909  0.77276494     0.30800
H363        H  0.26825414  0.51533179  0.79665366     0.38500
H364        H  0.38679456  0.80467196  0.77466253     0.30900
H365        H  0.20567822  0.66079384  0.77495114     0.30400
H366        H  0.30460131  0.70941847  0.87759324     0.30600
C367        C  0.46874157  0.98407975  0.00156286     0.79800
N368        N  0.00119408  0.52093722  0.00008904    -0.78500
C369        C  0.03362346  0.51845504  0.99733797     0.82300
N370        N  0.03279520  0.97910792  0.99577471    -0.78400
C371        C  0.50131755  0.94304429  0.99869077     0.82400
N372        N  0.46922144  0.94581591  0.00142889    -0.80100
C373        C  0.37500448  0.96142106  0.03194917     0.79800
N374        N  0.36501980  0.98152557  0.00447201    -0.78500
C375        C  0.39023865  0.50430384  0.97737484     0.82300
N376        N  0.42440553  0.50619906  0.97751668    -0.78400
C377        C  0.43331145  0.98574230  0.00390352     0.82400
N378        N  0.40913940  0.96340595  0.03138823    -0.80100
C379        C  0.12711910  0.59197066  0.96806666     0.79800
N380        N  0.13643092  0.62159758  0.99591959    -0.78500
C381        C  0.11244863  0.61885273  0.02372008     0.82300
N382        N  0.07841339  0.58596934  0.02356139    -0.78400
C383        C  0.06859032  0.55636203  0.99553491     0.82400
N384        N  0.09313123  0.55917489  0.96822010    -0.80100
C385        C  0.01244449  0.85075655  0.03133146     0.79800
N386        N  0.01307086  0.88957517  0.02999956    -0.78500
C387        C  0.00155229  0.90238307  0.99846276     0.82300
N388        N  0.48880504  0.87581224  0.96852620    -0.78400
C389        C  0.48867264  0.83721266  0.96886015     0.82400
N390        N  0.00065328  0.82507345  0.00032355    -0.80100
Zr391      Zr  0.17855522  0.84065394  0.32470000     2.17500
O392        O  0.17797525  0.80029040  0.38133795    -0.51700
O393        O  0.16945361  0.89501025  0.35994989    -0.74900
O394        O  0.23731253  0.86804827  0.35653628    -0.81700
O395        O  0.07713886  0.76936078  0.31073020    -0.83500
O396        O  0.28258333  0.88894131  0.31277569    -0.79100
O397        O  0.12194414  0.79703666  0.35563927    -0.90700
O398        O  0.16301665  0.93967692  0.31723430    -0.76700
O399        O  0.21853889  0.90118928  0.29023166    -0.86200
O400        O  0.13855321  0.86072324  0.28973893    -0.85900
O401        O  0.21402695  0.81611466  0.28611250    -0.72600
O402        O  0.14255346  0.78122578  0.28533305    -0.84800
Zr403      Zr  0.17786986  0.84109160  0.17477795     2.26400
Zr404      Zr  0.25314125  0.87687902  0.25025015     2.06300
Zr405      Zr  0.10310784  0.80235745  0.24997542     2.10000
Zr406      Zr  0.17864453  0.92150641  0.25523774     1.78800
O407        O  0.05957905  0.73067310  0.23319430    -0.93600
O408        O  0.23054399  0.98811348  0.27163567    -0.41400
O409        O  0.14214265  0.86368193  0.21465152    -0.78000
O410        O  0.21503861  0.90027244  0.21447172    -0.96700
O411        O  0.21696734  0.81935478  0.20931451    -0.90000
O412        O  0.13801004  0.78023413  0.20937603    -0.92800
C413        C  0.16187305  0.92576213  0.35122524     1.00900
C414        C  0.08914752  0.77306337  0.34511929     1.13900
C415        C  0.27110630  0.88286082  0.34731914     1.04600
O416        O  0.30224570  0.94836128  0.24870386    -0.95000
O417        O  0.28163468  0.89193023  0.18764191    -0.90700
O418        O  0.23657120  0.86723433  0.14295559    -0.83900
C419        C  0.27044863  0.88528958  0.15288693     1.11300
O420        O  0.18754906  0.71542515  0.29231619    -0.97000
Zr421      Zr  0.17756531  0.75906253  0.24404774     1.88900
O422        O  0.16837329  0.77841629  0.13836588    -0.73600
O423        O  0.29496108  0.84409789  0.24968954    -0.52900
O424        O  0.23157624  0.74845358  0.22978313    -0.97500
O425        O  0.12587834  0.69073396  0.25545073    -0.54800
O426        O  0.16465387  0.72782555  0.18055882    -0.74100
C427        C  0.16265957  0.74051782  0.14670094     0.98200
O428        O  0.18397300  0.88848604  0.12163640    -0.62900
O429        O  0.05348813  0.82136146  0.26375693    -0.57700
O430        O  0.11944803  0.82461290  0.14431680    -0.94400
O431        O  0.07663806  0.81130482  0.19047971    -0.92900
O432        O  0.12842142  0.93925504  0.24090895    -0.93200
O433        O  0.18872685  0.97274762  0.20473684    -0.92000
C434        C  0.08735006  0.81760179  0.15575144     1.17100
H435        H  0.12156152  0.86552033  0.30577740     0.33000
H436        H  0.23027270  0.92390401  0.19871461     0.43900
H437        H  0.12102791  0.75828672  0.19307725     0.37400
H438        H  0.22842883  0.80698545  0.30235124     0.33900
H439        H  0.22002523  0.00857277  0.27408554     0.25700
H440        H  0.31784247  0.86515936  0.26150998     0.31600
H441        H  0.23689023  0.75610682  0.20263721     0.37500
H442        H  0.10717775  0.91764823  0.25446978     0.32000
H443        H  0.03133512  0.79406384  0.26521846     0.30800
H444        H  0.03624152  0.73240755  0.22856576     0.32500
H445        H  0.11368353  0.68171203  0.23041433     0.31500
H446        H  0.18758047  0.95721791  0.18091329     0.35500
H447        H  0.16425442  0.89746161  0.12502504     0.28200
H448        H  0.18481750  0.82056766  0.40278189     0.32400
H449        H  0.18856586  0.69157909  0.27829908     0.35300
H450        H  0.05770325  0.83208118  0.29022951     0.27900
H451        H  0.20657944  0.91451585  0.12694910     0.40800
H452        H  0.29427859  0.96453384  0.26639031     0.30800
H453        H  0.23726510  0.98432185  0.29799786     0.38500
H454        H  0.10851065  0.69718285  0.27065647     0.30300
H455        H  0.28497431  0.82090234  0.26846267     0.30400
H456        H  0.19866762  0.79283620  0.37858288     0.30600
C457        C  0.03237838  0.51732611  0.50026352     0.79800
N458        N  0.99803678  0.98073727  0.50213442    -0.78500
C459        C  0.46614459  0.98396061  0.50280915     0.82300
N460        N  0.46883602  0.52308211  0.50009577    -0.78400
C461        C  0.00041607  0.55923019  0.50019451     0.82400
N462        N  0.03242414  0.55591406  0.50025012    -0.80100
C463        C  0.12449833  0.53366748  0.53140216     0.79800
N464        N  0.13387180  0.51440688  0.50293112    -0.78500
C465        C  0.10836415  0.99385237  0.47374282     0.82300
N466        N  0.07513870  0.99469540  0.47304414    -0.78400
C467        C  0.06737997  0.51461651  0.50156659     0.82400
N468        N  0.09119571  0.53386748  0.53052344    -0.80100
C469        C  0.48776125  0.65163887  0.53038699     0.79800
N470        N  0.48723324  0.61276248  0.53026441    -0.78500
C471        C  0.50119328  0.60022879  0.50041064     0.82300
N472        N  0.01461186  0.62714324  0.47023576    -0.78400
C473        C  0.01488893  0.66584705  0.47008456     0.82400
N474        N  0.50185793  0.67758449  0.50006679    -0.80100
C475        C  0.37457918  0.90816932  0.46966215     0.79800
N476        N  0.40797851  0.94174539  0.47142570    -0.78500
C477        C  0.43091471  0.94619486  0.50109483     0.82300
N478        N  0.42006829  0.91711042  0.52965895    -0.78400
C479        C  0.38645577  0.88334258  0.52801689     0.82400
N480        N  0.36399461  0.87922687  0.49805158    -0.80100
C481        C  0.02731971  0.67708931  0.40056954    -0.21700
C482        C  0.03017348  0.69419962  0.43724788    -0.09700
C483        C  0.04922931  0.73816479  0.44228719     0.29100
C484        C  0.06659585  0.76406426  0.41145223    -0.21700
C485        C  0.06471929  0.74675791  0.37507592    -0.09800
C486        C  0.04421504  0.70314555  0.36959845     0.29100
F487        F  0.04289387  0.68537162  0.33500798    -0.20300
H488        H  0.01266017  0.64333267  0.39603313     0.17500
H489        H  0.08272764  0.79760232  0.41622950     0.17500
F490        F  0.05318955  0.75587258  0.47733372    -0.20300
C491        C  0.16092202  0.94485371  0.41954367    -0.21700
C492        C  0.14881641  0.94444014  0.38206803    -0.09700
C493        C  0.12200293  0.95886825  0.37501383     0.29100
C494        C  0.10805127  0.97376396  0.40494188    -0.21700
C495        C  0.12077390  0.97496466  0.44236116    -0.09800
C496        C  0.14734673  0.96011089  0.44930477     0.29100
F497        F  0.15990960  0.95959388  0.48506310    -0.20300
H498        H  0.18106564  0.93334797  0.42586087     0.17500
H499        H  0.08745774  0.48245147  0.39960099     0.17500
F500        F  0.10835234  0.95728202  0.33940926    -0.20300
C501        C  0.31164898  0.88826184  0.44603146    -0.21700
C502        C  0.34901648  0.90385815  0.43821855    -0.09700
C503        C  0.36111980  0.91443232  0.40057582     0.29100
C504        C  0.33585565  0.90828663  0.37116296    -0.21700
C505        C  0.29816998  0.89210207  0.37885192    -0.09800
C506        C  0.28651154  0.88282948  0.41700477     0.29100
F507        F  0.25076012  0.86795216  0.42666116    -0.20300
H508        H  0.30180093  0.88042221  0.47492219     0.17500
H509        H  0.34581475  0.91565934  0.34229172     0.17500
F510        F  0.39711925  0.92905478  0.39199640    -0.20300
C511        C  0.04864934  0.85004997  0.13090206    -0.21700
C512        C  0.06208139  0.81984678  0.12690631    -0.09700
C513        C  0.05544019  0.79651242  0.09307061     0.29100
C514        C  0.03734571  0.80505689  0.06276332    -0.21700
C515        C  0.02634482  0.83765207  0.06550233    -0.09800
C516        C  0.03114693  0.85922653  0.10045215     0.29100
F517        F  0.02009206  0.89013709  0.10498769    -0.20300
H518        H  0.05369200  0.86836604  0.15687849     0.17500
H519        H  0.03363673  0.78754166  0.03650668     0.17500
F520        F  0.06742683  0.76634675  0.08901915    -0.20300
C521        C  0.16081799  0.72187963  0.07774635    -0.21700
C522        C  0.15091830  0.70894856  0.11549752    -0.09700
C523        C  0.12751696  0.66612509  0.12266525     0.29100
C524        C  0.11417971  0.63721579  0.09260157    -0.21700
C525        C  0.12453907  0.65013673  0.05499751    -0.09800
C526        C  0.14818916  0.69274704  0.04783233     0.29100
F527        F  0.15852216  0.70642459  0.01176849    -0.20300
H528        H  0.17850452  0.75463283  0.07136229     0.17500
H529        H  0.09628075  0.60447820  0.09881197     0.17500
F530        F  0.11664138  0.65230038  0.15858130    -0.20300
C531        C  0.28636913  0.89692763  0.08368523    -0.21700
C532        C  0.29811075  0.90068987  0.12186866    -0.09700
C533        C  0.33604155  0.92146268  0.12959370     0.29100
C534        C  0.36105375  0.93961367  0.09999475    -0.21700
C535        C  0.34887641  0.93797109  0.06231627    -0.09800
C536        C  0.31132982  0.91550908  0.05430273     0.29100
F537        F  0.29866490  0.91159833  0.01800739    -0.20300
H538        H  0.25758329  0.88061579  0.07644449     0.17500
H539        H  0.38991200  0.95653519  0.10677105     0.17500
F540        F  0.34908716  0.92548976  0.16573064    -0.20300
C541        C  0.45595030  0.66154722  0.62959504    -0.21700
C542        C  0.43624670  0.68504984  0.62259438    -0.09700
C543        C  0.43597604  0.70027627  0.58561908     0.29100
C544        C  0.45428877  0.69095064  0.55610045    -0.21700
C545        C  0.47201980  0.66509193  0.56264076    -0.09800
C546        C  0.47320864  0.65104599  0.59988115     0.29100
F547        F  0.98931229  0.62508910  0.60743412    -0.20300
H548        H  0.45609849  0.64905865  0.65773810     0.17500
H549        H  0.45309174  0.70227809  0.52771104     0.17500
F550        F  0.41722197  0.72316912  0.57782874    -0.20300
C551        C  0.34258866  0.55923255  0.92278059    -0.21700
C552        C  0.35348635  0.55716149  0.88518393    -0.09700
C553        C  0.37735664  0.53851714  0.87858937     0.29100
C554        C  0.38985212  0.52243251  0.90884986    -0.21700
C555        C  0.37839615  0.52380453  0.94618973    -0.09800
C556        C  0.35454245  0.54233026  0.95295858     0.29100
F557        F  0.34343889  0.54496104  0.98882957    -0.20300
H558        H  0.32460945  0.57379728  0.92882903     0.17500
H559        H  0.41183936  0.01570617  0.90339642     0.17500
F560        F  0.38951266  0.53678323  0.84303749    -0.20300
C561        C  0.46077677  0.79868893  0.86793635    -0.21700
C562        C  0.43978339  0.75534685  0.87390218    -0.09700
C563        C  0.43811530  0.73860283  0.91058438     0.29100
C564        C  0.45567239  0.76522071  0.94110364    -0.21700
C565        C  0.47445840  0.80898653  0.93568448    -0.09800
C566        C  0.47768280  0.82548304  0.89864423     0.29100
F567        F  0.49638638  0.86759044  0.89224503    -0.20300
H568        H  0.46210572  0.81218099  0.83995367     0.17500
H569        H  0.45293933  0.75180914  0.96931615     0.17500
F570        F  0.41823015  0.69666781  0.91714326    -0.20300
C571        C  0.13827770  0.55404264  0.60013067    -0.21700
C572        C  0.15066825  0.55412882  0.56285585    -0.09700
C573        C  0.18850977  0.57249390  0.55606257     0.29100
C574        C  0.21331686  0.58963621  0.58596962    -0.21700
C575        C  0.20124847  0.58881261  0.62357476    -0.09800
C576        C  0.16322084  0.57084473  0.63034870     0.29100
F577        F  0.15000198  0.56926369  0.66599898    -0.20300
H578        H  0.10922569  0.53993470  0.60604188     0.17500
H579        H  0.24223564  0.60317441  0.57950280     0.17500
F580        F  0.20169990  0.57442033  0.52032937    -0.20300
C581        C  0.37467121  0.86418275  0.59676609    -0.21700
C582        C  0.37332376  0.85157403  0.55876003    -0.09700
C583        C  0.35679207  0.80824988  0.54999080     0.29100
C584        C  0.34289288  0.77810327  0.57892296    -0.21700
C585        C  0.34424780  0.79044588  0.61720455    -0.09800
C586        C  0.35984103  0.83411277  0.62569961     0.29100
F587        F  0.36151650  0.84803078  0.66199477    -0.20300
H588        H  0.38656183  0.89744069  0.60397457     0.17500
H589        H  0.33127628  0.74498429  0.57128233     0.17500
F590        F  0.35484315  0.79504457  0.51340799    -0.20300
C591        C  0.14243348  0.57327058  0.90364920    -0.21700
C592        C  0.15409382  0.59520186  0.93831345    -0.09700
C593        C  0.19175842  0.62081066  0.94390916     0.29100
C594        C  0.21673269  0.62535395  0.91511583    -0.21700
C595        C  0.20502978  0.60495139  0.87980688    -0.09800
C596        C  0.16750154  0.57817113  0.87458645     0.29100
F597        F  0.15487843  0.55689771  0.84141411    -0.20300
H598        H  0.11370050  0.55303716  0.89860210     0.17500
H599        H  0.24534608  0.64604359  0.92026891     0.17500
F600        F  0.20473551  0.64172196  0.97718743    -0.20300
Zr601      Zr  0.82385261  0.16169615  0.82465828     2.17500
O602        O  0.82471445  0.20093452  0.88220052    -0.51700
O603        O  0.83323188  0.10871073  0.86159452    -0.74900
O604        O  0.76494549  0.13508647  0.85590832    -0.81700
O605        O  0.92556077  0.23327128  0.80888442    -0.83500
O606        O  0.71932341  0.10846561  0.81205094    -0.79100
O607        O  0.88120007  0.20785614  0.85405976    -0.90700
O608        O  0.83830632  0.06254788  0.81973567    -0.76700
O609        O  0.78513245  0.09927641  0.79124337    -0.86200
O610        O  0.86450093  0.14269060  0.78986191    -0.85900
O611        O  0.78580270  0.18219142  0.78534228    -0.72600
O612        O  0.85814611  0.22046205  0.78417684    -0.84800
Zr613      Zr  0.82185284  0.15885975  0.67416713     2.26400
Zr614      Zr  0.74839539  0.11956531  0.74999166     2.06300
Zr615      Zr  0.89800770  0.20022089  0.74849149     2.10000
Zr616      Zr  0.82563206  0.08064691  0.75612332     1.78800
O617        O  0.93998349  0.27295713  0.73357785    -0.93600
O618        O  0.77225599  0.01378409  0.76737317    -0.41400
O619        O  0.85947899  0.13795192  0.71384353    -0.78000
O620        O  0.78795827  0.09908496  0.71422364    -0.96700
O621        O  0.78161098  0.17825231  0.70893045    -0.90000
O622        O  0.86100841  0.22023312  0.70875890    -0.92800
C623        C  0.83967056  0.07706585  0.85354695     1.00900
C624        C  0.91404798  0.23078005  0.84322794     1.13900
C625        C  0.73100354  0.11745817  0.84643908     1.04600
O626        O  0.70653430  0.04464679  0.75050425    -0.95000
O627        O  0.71829598  0.09900112  0.68829074    -0.90700
O628        O  0.76220223  0.12762803  0.64328073    -0.83900
C629        C  0.72877018  0.10615373  0.65350585     1.11300
O630        O  0.81105071  0.28303954  0.79211114    -0.97000
Zr631      Zr  0.82056521  0.23964301  0.74340035     1.88900
O632        O  0.82989708  0.22178190  0.63827338    -0.73600
O633        O  0.69956227  0.14185154  0.74667943    -0.52900
O634        O  0.76502037  0.24665557  0.72808476    -0.97500
O635        O  0.86958794  0.30992798  0.75479693    -0.54800
O636        O  0.83437969  0.27235598  0.68081339    -0.74100
C637        C  0.83633808  0.25991558  0.64691511     0.98200
O638        O  0.81776424  0.11297762  0.62030940    -0.62900
O639        O  0.94804465  0.18112348  0.75987921    -0.57700
O640        O  0.87929520  0.17948767  0.64170520    -0.94400
O641        O  0.92347525  0.19428433  0.68698072    -0.92900
O642        O  0.87750694  0.06378388  0.75213354    -0.93200
O643        O  0.82219969  0.03180648  0.70554906    -0.92000
C644        C  0.91197300  0.18795891  0.65227005     1.17100
H645        H  0.88168129  0.13837176  0.80624736     0.33000
H646        H  0.77347564  0.07485762  0.69860002     0.43900
H647        H  0.87760083  0.24240213  0.69256715     0.37400
H648        H  0.77052102  0.19030645  0.80107621     0.33900
H649        H  0.78182252  0.99233287  0.76734555     0.25700
H650        H  0.67753362  0.11745112  0.75617312     0.31600
H651        H  0.77369033  0.27645513  0.72018885     0.37500
H652        H  0.89832798  0.09071160  0.74486451     0.32000
H653        H  0.97049539  0.20810632  0.75830128     0.30800
H654        H  0.96457637  0.27516938  0.73954270     0.32500
H655        H  0.86290761  0.32911208  0.73945820     0.31500
H656        H  0.82412175  0.04768450  0.68175751     0.35500
H657        H  0.83820686  0.10517963  0.62375428     0.28200
H658        H  0.81559085  0.17977636  0.90287080     0.32400
H659        H  0.78706938  0.26491261  0.80359629     0.35300
H660        H  0.94629447  0.17321184  0.78708111     0.27900
H661        H  0.79578113  0.08614176  0.62495737     0.40800
H662        H  0.68202388  0.04369888  0.75389364     0.30800
H663        H  0.76556801  0.01511889  0.79422661     0.38500
H664        H  0.89104204  0.30989903  0.74162560     0.30900
H665        H  0.70560429  0.16368786  0.76669572     0.30400
H666        H  0.80553598  0.21076644  0.87850475     0.30600
C667        C  0.96931404  0.48485843  0.00219504     0.79800
N668        N  0.50082056  0.01992591  0.99928331    -0.78500
C669        C  0.53314347  0.01710077  0.99670908     0.82300
N670        N  0.53416648  0.47920388  0.99762129    -0.78400
C671        C  0.00232003  0.44439934  0.99873130     0.82400
N672        N  0.97007036  0.44675165  0.00164480    -0.80100
C673        C  0.87532106  0.46154936  0.03171797     0.79800
N674        N  0.86546687  0.48160450  0.00413230    -0.78500
C675        C  0.88832217  0.00353369  0.97620578     0.82300
N676        N  0.92251054  0.00547739  0.97597334    -0.78400
C677        C  0.93381249  0.48614031  0.00418687     0.82400
N678        N  0.90950600  0.46369884  0.03150684    -0.80100
C679        C  0.62652751  0.09164761  0.96711973     0.79800
N680        N  0.63557251  0.12122562  0.99494834    -0.78500
C681        C  0.61169113  0.11805491  0.02294358     0.82300
N682        N  0.57789652  0.08471778  0.02294371    -0.78400
C683        C  0.56828640  0.05498608  0.99502396     0.82400
N684        N  0.59281735  0.05826170  0.96749011    -0.80100
C685        C  0.51394562  0.35034166  0.03081180     0.79800
N686        N  0.51444315  0.38911047  0.03040256    -0.78500
C687        C  0.50257316  0.40242015  0.99944224     0.82300
N688        N  0.99025921  0.37795799  0.96743807    -0.78400
C689        C  0.99051041  0.33956329  0.96693148     0.82400
N690        N  0.50197822  0.32521528  0.99950688    -0.80100
Zr691      Zr  0.67828180  0.33827327  0.32455286     2.17500
O692        O  0.67667072  0.29553635  0.37972036    -0.51700
O693        O  0.66910312  0.39230485  0.36053973    -0.74900
O694        O  0.73721690  0.36528540  0.35629346    -0.81700
O695        O  0.57668311  0.26636610  0.30884393    -0.83500
O696        O  0.78261858  0.38727311  0.31244559    -0.79100
O697        O  0.62076098  0.29409548  0.35447205    -0.90700
O698        O  0.66357623  0.43791728  0.31816750    -0.76700
O699        O  0.71824137  0.39938004  0.29066983    -0.86200
O700        O  0.63884083  0.35928863  0.28976573    -0.85900
O701        O  0.71451667  0.31518177  0.28534067    -0.72600
O702        O  0.64274276  0.27966176  0.28423000    -0.84800
Zr703      Zr  0.67854316  0.34057338  0.17450581     2.26400
Zr704      Zr  0.75340701  0.37667849  0.25001566     2.06300
Zr705      Zr  0.60364213  0.30167923  0.24934614     2.10000
Zr706      Zr  0.67888249  0.42044125  0.25571987     1.78800
O707        O  0.55815335  0.23113257  0.23213732    -0.93600
O708        O  0.73017703  0.48736590  0.27275303    -0.41400
O709        O  0.64263671  0.36323989  0.21424851    -0.78000
O710        O  0.71516861  0.39971467  0.21441168    -0.96700
O711        O  0.71785432  0.31905986  0.20881735    -0.90000
O712        O  0.63871762  0.27985202  0.20896482    -0.92800
C713        C  0.66209440  0.42356541  0.35204025     1.00900
C714        C  0.58810686  0.26986369  0.34342908     1.13900
C715        C  0.77104834  0.38042558  0.34693117     1.04600
O716        O  0.79945912  0.44990247  0.25136691    -0.95000
O717        O  0.78184987  0.39343034  0.18733387    -0.90700
O718        O  0.73697980  0.36707935  0.14255689    -0.83900
C719        C  0.77075328  0.38620457  0.15255422     1.11300
O720        O  0.69051611  0.21690359  0.29176928    -0.97000
Zr721      Zr  0.67831955  0.25834614  0.24297526     1.88900
O722        O  0.66881949  0.27756741  0.13814235    -0.73600
O723        O  0.79810497  0.34805898  0.24736608    -0.52900
O724        O  0.73152616  0.24841088  0.22366982    -0.97500
O725        O  0.62683996  0.18955666  0.25279594    -0.54800
O726        O  0.66330865  0.22609649  0.18013969    -0.74100
C727        C  0.66192334  0.23924091  0.14634933     0.98200
O728        O  0.68444260  0.38822996  0.12165128    -0.62900
O729        O  0.55711660  0.32383289  0.26815633    -0.57700
O730        O  0.62061903  0.32267508  0.14317583    -0.94400
O731        O  0.57791773  0.31052454  0.18922742    -0.92900
O732        O  0.62786056  0.43682671  0.24148645    -0.93200
O733        O  0.69223009  0.47375316  0.20646376    -0.92000
C734        C  0.58864479  0.31611457  0.15446333     1.17100
H735        H  0.62171407  0.36386677  0.30577395     0.33000
H736        H  0.73024646  0.42348360  0.19871403     0.43900
H737        H  0.62154670  0.25807281  0.19267199     0.37400
H738        H  0.72916340  0.30609701  0.30125732     0.33900
H739        H  0.71877828  0.50575704  0.28086341     0.25700
H740        H  0.82164811  0.37196292  0.25453550     0.31600
H741        H  0.72138637  0.21980028  0.21229561     0.37500
H742        H  0.63167727  0.46100482  0.25824451     0.32000
H743        H  0.56396858  0.35106669  0.25496418     0.30800
H744        H  0.53435612  0.23215750  0.23507603     0.32500
H745        H  0.60789956  0.18881625  0.23460448     0.31500
H746        H  0.68641900  0.45769051  0.18226700     0.35500
H747        H  0.66434350  0.39660351  0.12490256     0.28200
H748        H  0.68376262  0.31511455  0.40170296     0.32400
H749        H  0.69136090  0.19278109  0.27809431     0.35300
H750        H  0.53449346  0.30385302  0.25513655     0.27900
H751        H  0.70672519  0.41449755  0.12731618     0.40800
H752        H  0.78566661  0.46658544  0.24630072     0.30800
H753        H  0.74044228  0.48166280  0.29648133     0.38500
H754        H  0.61705489  0.19156963  0.27807439     0.30300
H755        H  0.79211141  0.32825736  0.26906319     0.30400
H756        H  0.69710661  0.28776042  0.37629771     0.30600
C757        C  0.53065776  0.01632240  0.50152768     0.79800
N758        N  0.50076857  0.48121500  0.50046415    -0.78500
C759        C  0.96790920  0.48513956  0.50055004     0.82300
N760        N  0.96604534  0.02250670  0.50095949    -0.78400
C761        C  0.49856709  0.05811774  0.50111036     0.82400
N762        N  0.53062451  0.05488637  0.50096989    -0.80100
C763        C  0.62292684  0.03187824  0.53170304     0.79800
N764        N  0.63223343  0.01365918  0.50244700    -0.78500
C765        C  0.61167028  0.49568891  0.47402890     0.82300
N766        N  0.57809901  0.49557873  0.47338470    -0.78400
C767        C  0.56575456  0.01371782  0.50218223     0.82400
N768        N  0.58956587  0.03200928  0.53143051    -0.80100
C769        C  0.98440525  0.15119777  0.52801801     0.79800
N770        N  0.98423242  0.11251005  0.52839674    -0.78500
C771        C  0.99793056  0.09951339  0.49864841     0.82300
N772        N  0.51088052  0.12456524  0.46891482    -0.78400
C773        C  0.51067975  0.16304345  0.46782209     0.82400
N774        N  0.99783574  0.17651288  0.49722054    -0.80100
C775        C  0.87597328  0.40914235  0.46864142     0.79800
N776        N  0.90917995  0.44307446  0.47011129    -0.78500
C777        C  0.93277265  0.44744244  0.49912174     0.82300
N778        N  0.92283433  0.41805794  0.52735215    -0.78400
C779        C  0.88940297  0.38406821  0.52618508     0.82400
N780        N  0.86635843  0.38000208  0.49681825    -0.80100
C781        C  0.52324345  0.17401662  0.39792065    -0.21700
C782        C  0.52600770  0.19106537  0.43464966    -0.09700
C783        C  0.54575263  0.23495148  0.43977261     0.29100
C784        C  0.56435650  0.26068198  0.40931480    -0.21700
C785        C  0.56290995  0.24346648  0.37301378    -0.09800
C786        C  0.54117125  0.20007172  0.36714586     0.29100
F787        F  0.53943183  0.18244605  0.33239126    -0.20300
H788        H  0.50791560  0.14035781  0.39324423     0.17500
H789        H  0.58100937  0.29406145  0.41437189     0.17500
F790        F  0.54926989  0.25273067  0.47472300    -0.20300
C791        C  0.66250775  0.44420880  0.42022930    -0.21700
C792        C  0.64959478  0.44278202  0.38293921    -0.09700
C793        C  0.62304618  0.45762957  0.37595243     0.29100
C794        C  0.61024061  0.47403085  0.40569220    -0.21700
C795        C  0.62381110  0.47631572  0.44287248    -0.09800
C796        C  0.65008140  0.46105176  0.44982376     0.29100
F797        F  0.66331226  0.46153723  0.48544113    -0.20300
H798        H  0.68247782  0.43243063  0.42647840     0.17500
H799        H  0.58747358  0.98546880  0.39815669     0.17500
F800        F  0.60851099  0.45499361  0.34063642    -0.20300
C801        C  0.81245378  0.37832741  0.44337956    -0.21700
C802        C  0.84979556  0.40384087  0.43736722    -0.09700
C803        C  0.86123124  0.42274355  0.40147456     0.29100
C804        C  0.83561250  0.41528243  0.37214262    -0.21700
C805        C  0.79816188  0.38946476  0.37822623    -0.09800
C806        C  0.78693895  0.37130678  0.41446942     0.29100
F807        F  0.75136277  0.34570079  0.42208854    -0.20300
H808        H  0.80276084  0.36354733  0.47072501     0.17500
H809        H  0.84512846  0.42969686  0.34464090     0.17500
F810        F  0.89714249  0.44741790  0.39431656    -0.20300
C811        C  0.54857419  0.34685318  0.13030587    -0.21700
C812        C  0.56365326  0.31831436  0.12536984    -0.09700
C813        C  0.55892320  0.29695753  0.09058915     0.29100
C814        C  0.54081787  0.30574845  0.06046270    -0.21700
C815        C  0.52797587  0.33666072  0.06440317    -0.09800
C816        C  0.53100326  0.35620884  0.10010580     0.29100
F817        F  0.51789495  0.38518099  0.10570381    -0.20300
H818        H  0.55225302  0.36374403  0.15695381     0.17500
H819        H  0.53851427  0.28987597  0.03350274     0.17500
F820        F  0.57274733  0.26855705  0.08549319    -0.20300
C821        C  0.66168242  0.22044765  0.07776131    -0.21700
C822        C  0.64971119  0.20784167  0.11506507    -0.09700
C823        C  0.62428076  0.16563419  0.12166517     0.29100
C824        C  0.61119174  0.13692603  0.09143072    -0.21700
C825        C  0.62367318  0.14940882  0.05424321    -0.09800
C826        C  0.64923515  0.19151850  0.04770181     0.29100
F827        F  0.66182568  0.20499905  0.01213861    -0.20300
H828        H  0.68097860  0.25276767  0.07188030     0.17500
H829        H  0.59178145  0.10463845  0.09724422     0.17500
F830        F  0.61124341  0.15229934  0.15713423    -0.20300
C831        C  0.78651193  0.39844891  0.08339774    -0.21700
C832        C  0.79832309  0.40186952  0.12154435    -0.09700
C833        C  0.83624536  0.42206408  0.12924031     0.29100
C834        C  0.86128052  0.43976087  0.09962902    -0.21700
C835        C  0.84910637  0.43833166  0.06199092    -0.09800
C836        C  0.81150190  0.41662011  0.05399433     0.29100
F837        F  0.79882235  0.41305834  0.01772010    -0.20300
H838        H  0.75768871  0.38266416  0.07620076     0.17500
H839        H  0.89017952  0.45619217  0.10637101     0.17500
F840        F  0.84927358  0.42583130  0.16535733    -0.20300
C841        C  0.95582344  0.16230532  0.62833472    -0.21700
C842        C  0.93665563  0.18654318  0.62229891    -0.09700
C843        C  0.93626214  0.20256601  0.58568947     0.29100
C844        C  0.95335734  0.19262901  0.55537198    -0.21700
C845        C  0.97013128  0.16560088  0.56088663    -0.09800
C846        C  0.97203836  0.15144074  0.59791721     0.29100
F847        F  0.49155980  0.12919880  0.60745400    -0.20300
H848        H  0.95615933  0.14936227  0.65622144     0.17500
H849        H  0.95187325  0.20435268  0.52723114     0.17500
F850        F  0.91829334  0.22658469  0.57903492    -0.20300
C851        C  0.83810633  0.05601695  0.92206839    -0.21700
C852        C  0.85139241  0.05753540  0.88497076    -0.09700
C853        C  0.87785050  0.04258240  0.87858188     0.29100
C854        C  0.89028061  0.02603960  0.90853185    -0.21700
C855        C  0.87631639  0.02344807  0.94538523    -0.09800
C856        C  0.85011896  0.03877135  0.95196184     0.29100
F857        F  0.83672869  0.03798145  0.98742004    -0.20300
H858        H  0.81821250  0.06796798  0.92787387     0.17500
H859        H  0.90860632  0.51017377  0.90224161     0.17500
F860        F  0.89265028  0.04517846  0.84357918    -0.20300
C861        C  0.95829007  0.30111023  0.86674471    -0.21700
C862        C  0.93936405  0.25748724  0.87260390    -0.09700
C863        C  0.94032994  0.24072105  0.90863269     0.29100
C864        C  0.95874790  0.26752497  0.93877637    -0.21700
C865        C  0.97561724  0.31147987  0.93368242    -0.09800
C866        C  0.97598903  0.32807248  0.89710040     0.29100
F867        F  0.99265072  0.37034172  0.89081271    -0.20300
H868        H  0.95746095  0.31451072  0.83920711     0.17500
H869        H  0.95815932  0.25397233  0.96657797     0.17500
F870        F  0.92237724  0.19850890  0.91492387    -0.20300
C871        C  0.63769690  0.05416884  0.59997414    -0.21700
C872        C  0.64955952  0.05180028  0.56295708    -0.09700
C873        C  0.68735932  0.06769239  0.55613442     0.29100
C874        C  0.71253302  0.08553458  0.58560241    -0.21700
C875        C  0.70091937  0.08776976  0.62278419    -0.09800
C876        C  0.66301792  0.07162155  0.62975471     0.29100
F877        F  0.65030643  0.07282573  0.66515230    -0.20300
H878        H  0.60875075  0.04181692  0.60601811     0.17500
H879        H  0.74135458  0.09727556  0.57917898     0.17500
F880        F  0.70026937  0.06670542  0.52076691    -0.20300
C881        C  0.88704047  0.36423590  0.59491671    -0.21700
C882        C  0.87702070  0.35219780  0.55697817    -0.09700
C883        C  0.85339102  0.30968065  0.54886842     0.29100
C884        C  0.83987613  0.28004204  0.57818567    -0.21700
C885        C  0.84918954  0.29212550  0.61626582    -0.09800
C886        C  0.87324395  0.33465364  0.62434426     0.29100
F887        F  0.88448895  0.34748525  0.66051419    -0.20300
H888        H  0.90516204  0.39674436  0.60187262     0.17500
H889        H  0.82203637  0.24750286  0.57104668     0.17500
F890        F  0.84393757  0.29648786  0.51243220    -0.20300
C891        C  0.64183237  0.07417265  0.90222066    -0.21700
C892        C  0.65340325  0.09612017  0.93688044    -0.09700
C893        C  0.69083718  0.12342162  0.94185328     0.29100
C894        C  0.71562740  0.12924475  0.91261102    -0.21700
C895        C  0.70399527  0.10839776  0.87751422    -0.09800
C896        C  0.66673694  0.08038050  0.87269092     0.29100
F897        F  0.65427577  0.05895897  0.83955765    -0.20300
H898        H  0.61328257  0.05284974  0.89758213     0.17500
H899        H  0.74405014  0.15099126  0.91736399     0.17500
F900        F  0.70381513  0.14469215  0.97497591    -0.20300
Zr901      Zr  0.82483663  0.66219888  0.82565431     2.17500
O902        O  0.82497669  0.70467915  0.88056498    -0.51700
O903        O  0.83515624  0.60966041  0.86220152    -0.74900
O904        O  0.76662657  0.63284119  0.85862774    -0.81700
O905        O  0.92636553  0.73373380  0.80917545    -0.83500
O906        O  0.72074519  0.60915284  0.81478898    -0.79100
O907        O  0.88295552  0.70569781  0.85503254    -0.90700
O908        O  0.84012057  0.56370821  0.81999167    -0.76700
O909        O  0.78589481  0.59992868  0.79222116    -0.86200
O910        O  0.86521311  0.64339070  0.79012375    -0.85900
O911        O  0.78610419  0.68238995  0.78709427    -0.72600
O912        O  0.85862624  0.72121918  0.78517027    -0.84800
Zr913      Zr  0.82162849  0.65901060  0.67553167     2.26400
Zr914      Zr  0.74843337  0.61998365  0.75193482     2.06300
Zr915      Zr  0.89821136  0.70109395  0.74891985     2.10000
Zr916      Zr  0.82604882  0.58115676  0.75674212     1.78800
O917        O  0.94131549  0.77321934  0.73340643    -0.93600
O918        O  0.77343715  0.51452879  0.77073080    -0.41400
O919        O  0.85980102  0.63855094  0.71457735    -0.78000
O920        O  0.78766399  0.59927510  0.71568662    -0.96700
O921        O  0.78152087  0.67827593  0.71070800    -0.90000
O922        O  0.86063353  0.72086234  0.70962234    -0.92800
C923        C  0.84163367  0.57808599  0.85388447     1.00900
C924        C  0.91549359  0.72960121  0.84389038     1.13900
C925        C  0.73262183  0.61636837  0.84926140     1.04600
O926        O  0.70241442  0.54692437  0.75572740    -0.95000
O927        O  0.71818861  0.59832101  0.69024453    -0.90700
O928        O  0.76198687  0.62860960  0.64540700    -0.83900
C929        C  0.72866250  0.60655691  0.65549331     1.11300
O930        O  0.80853738  0.77929272  0.79570061    -0.97000
Zr931      Zr  0.82026286  0.73980398  0.74496484     1.88900
O932        O  0.82809156  0.72103802  0.63939778    -0.73600
O933        O  0.70328203  0.64783688  0.74766635    -0.52900
O934        O  0.76664976  0.75143113  0.73094091    -0.97500
O935        O  0.87082535  0.80957084  0.75391646    -0.54800
O936        O  0.83031531  0.77071099  0.68172793    -0.74100
C937        C  0.83255925  0.75853990  0.64781094     0.98200
O938        O  0.81583162  0.61238612  0.62172349    -0.62900
O939        O  0.94754425  0.68137809  0.76207832    -0.57700
O940        O  0.87884289  0.67860829  0.64253595    -0.94400
O941        O  0.92314592  0.69385512  0.68769517    -0.92900
O942        O  0.87673310  0.56262315  0.74922738    -0.93200
O943        O  0.81946687  0.53141581  0.70583316    -0.92000
C944        C  0.91149499  0.68685435  0.65311375     1.17100
H945        H  0.88274734  0.63924922  0.80611039     0.33000
H946        H  0.77303552  0.57502266  0.70016169     0.43900
H947        H  0.87665026  0.74313450  0.69313190     0.37400
H948        H  0.77107180  0.69054635  0.80318905     0.33900
H949        H  0.78359644  0.49369729  0.77281295     0.25700
H950        H  0.67937907  0.62263765  0.74928865     0.31600
H951        H  0.77658446  0.78057213  0.72085899     0.37500
H952        H  0.89231098  0.58202411  0.72936511     0.32000
H953        H  0.94205902  0.65629038  0.74591520     0.30800
H954        H  0.96562228  0.77313134  0.73421481     0.32500
H955        H  0.88951568  0.81074166  0.73539456     0.31500
H956        H  0.82209635  0.54766647  0.68212732     0.35500
H957        H  0.83695555  0.60557473  0.62363184     0.28200
H958        H  0.81925612  0.68552063  0.90273860     0.32400
H959        H  0.81887871  0.77246201  0.81882919     0.35300
H960        H  0.96950247  0.70403325  0.75044322     0.27900
H961        H  0.79465453  0.58524211  0.62772890     0.40800
H962        H  0.71607873  0.52999961  0.75138076     0.30800
H963        H  0.76637862  0.51755676  0.79707646     0.38500
H964        H  0.88146373  0.80832536  0.77902349     0.30900
H965        H  0.70550298  0.66307032  0.77192092     0.30400
H966        H  0.80337109  0.71043094  0.87735147     0.30600
C967        C  0.96815794  0.98397594  0.00098301     0.79800
N968        N  0.50173840  0.52039052  0.00100378    -0.78500
C969        C  0.53406772  0.51765235  0.99835614     0.82300
N970        N  0.53318162  0.97861341  0.99632363    -0.78400
C971        C  0.00106109  0.94339783  0.99798906     0.82400
N972        N  0.96885444  0.94585254  0.00072376    -0.80100
C973        C  0.87440536  0.96080988  0.03116946     0.79800
N974        N  0.86447834  0.98112759  0.00386267    -0.78500
C975        C  0.88940035  0.50381468  0.97650713     0.82300
N976        N  0.92363550  0.50592307  0.97657833    -0.78400
C977        C  0.93271059  0.98534612  0.00323861     0.82400
N978        N  0.90851811  0.96279430  0.03059238    -0.80100
C979        C  0.62734384  0.59221408  0.96869627     0.79800
N980        N  0.63622867  0.62209000  0.99624001    -0.78500
C981        C  0.61223900  0.61902733  0.02409587     0.82300
N982        N  0.57854834  0.58554450  0.02427969    -0.78400
C983        C  0.56910217  0.55559031  0.99658753     0.82400
N984        N  0.59369902  0.55874254  0.96918284    -0.80100
C985        C  0.51329317  0.85032323  0.03107642     0.79800
N986        N  0.51398538  0.88920036  0.02995011    -0.78500
C987        C  0.50156141  0.90182579  0.99895502     0.82300
N988        N  0.98966853  0.87660760  0.96778832    -0.78400
C989        C  0.98950418  0.83800398  0.96836306     0.82400
N990        N  0.50063127  0.82441851  0.00032905    -0.80100
Zr991      Zr  0.67856827  0.84107510  0.32451805     2.17500
O992        O  0.67903914  0.79956189  0.37990799    -0.51700
O993        O  0.66884693  0.89511807  0.35970572    -0.74900
O994        O  0.73718302  0.87055168  0.35658138    -0.81700
O995        O  0.57739067  0.76893359  0.31039088    -0.83500
O996        O  0.78223692  0.88841404  0.31276656    -0.79100
O997        O  0.62175857  0.79784785  0.35555222    -0.90700
O998        O  0.66305905  0.94019101  0.31694711    -0.76700
O999        O  0.71830765  0.90190029  0.29034908    -0.86200
O1000       O  0.63866400  0.86124464  0.28958873    -0.85900
O1001       O  0.71458692  0.81734271  0.28566241    -0.72600
O1002       O  0.64273672  0.78156493  0.28515498    -0.84800
Zr1003     Zr  0.67811445  0.84157323  0.17469982     2.26400
Zr1004     Zr  0.75331026  0.87871523  0.25003114     2.06300
Zr1005     Zr  0.60334724  0.80288677  0.24993087     2.10000
Zr1006     Zr  0.67857282  0.92213265  0.25506134     1.78800
O1007       O  0.55785284  0.73186711  0.23391289    -0.93600
O1008       O  0.73144951  0.98825198  0.27069468    -0.41400
O1009       O  0.64225701  0.86419763  0.21434352    -0.78000
O1010       O  0.71487870  0.90123190  0.21390708    -0.96700
O1011       O  0.71751342  0.82039272  0.20944821    -0.90000
O1012       O  0.63843303  0.78090747  0.20946761    -0.92800
C1013       C  0.66160368  0.92611613  0.35087498     1.00900
C1014       C  0.58916562  0.77312176  0.34489447     1.13900
C1015       C  0.77084022  0.88379342  0.34732249     1.04600
O1016       O  0.79570674  0.95350235  0.24930908    -0.95000
O1017       O  0.78188556  0.89302922  0.18745878    -0.90700
O1018       O  0.73671923  0.86795530  0.14293189    -0.83900
C1019       C  0.77059238  0.88616442  0.15275081     1.11300
O1020       O  0.68658582  0.71606795  0.29316931    -0.97000
Zr1021     Zr  0.67809260  0.75984915  0.24395251     1.88900
O1022       O  0.66860280  0.77890081  0.13835418    -0.73600
O1023       O  0.80203900  0.85613678  0.24795449    -0.52900
O1024       O  0.73176496  0.74868219  0.22965934    -0.97500
O1025       O  0.62603492  0.69128774  0.25308448    -0.54800
O1026       O  0.66535563  0.72849995  0.18050847    -0.74100
C1027       C  0.66302992  0.74106721  0.14669440     0.98200
O1028       O  0.68365130  0.88839522  0.12124989    -0.62900
O1029       O  0.55665365  0.82644004  0.26455809    -0.57700
O1030       O  0.61980747  0.82449256  0.14407409    -0.94400
O1031       O  0.57635129  0.80901001  0.18991546    -0.92900
O1032       O  0.62831137  0.94015594  0.24189226    -0.93200
O1033       O  0.68858840  0.97569999  0.20684290    -0.92000
C1034       C  0.58737450  0.81606144  0.15533026     1.17100
H1035       H  0.62158887  0.86594117  0.30557934     0.33000
H1036       H  0.72987397  0.92484818  0.19800406     0.43900
H1037       H  0.62145271  0.75887151  0.19323743     0.37400
H1038       H  0.72929187  0.80847397  0.30171838     0.33900
H1039       H  0.72092327  0.00764542  0.27837968     0.25700
H1040       H  0.82469024  0.88189526  0.25385390     0.31600
H1041       H  0.74997981  0.76509360  0.24931079     0.37500
H1042       H  0.60598467  0.91393244  0.24726324     0.32000
H1043       H  0.53319579  0.80190554  0.25835555     0.30800
H1044       H  0.53677882  0.72664910  0.25063235     0.32500
H1045       H  0.63021141  0.67192929  0.23546787     0.31500
H1046       H  0.68764800  0.96138074  0.18235056     0.35500
H1047       H  0.66431622  0.89788892  0.12514948     0.28200
H1048       H  0.68395271  0.81874011  0.40200074     0.32400
H1049       H  0.68872655  0.69269573  0.27946362     0.35300
H1050       H  0.55659310  0.82868878  0.29262921     0.27900
H1051       H  0.70658742  0.91426280  0.12586547     0.40800
H1052       H  0.80522141  0.96025932  0.27565520     0.30800
H1053       H  0.74162131  0.98274958  0.29457652     0.38500
H1054       H  0.60495823  0.69442818  0.24195949     0.30300
H1055       H  0.79814612  0.83771115  0.27040778     0.30400
H1056       H  0.70105912  0.79452330  0.37745346     0.30600
C1057       C  0.53305001  0.51679617  0.50074052     0.79800
N1058       N  0.49832931  0.98075690  0.50243987    -0.78500
C1059       C  0.96581780  0.98387280  0.50234580     0.82300
N1060       N  0.96823310  0.52383822  0.50021944    -0.78400
C1061       C  0.50099028  0.55856357  0.50058321     0.82400
N1062       N  0.53301696  0.55532793  0.50093185    -0.80100
C1063       C  0.62508245  0.53342316  0.53208373     0.79800
N1064       N  0.63481940  0.51473870  0.50340759    -0.78500
C1065       C  0.60907597  0.99542816  0.47298401     0.82300
N1066       N  0.57557260  0.99555255  0.47278847    -0.78400
C1067       C  0.56807203  0.51426986  0.50209942     0.82400
N1068       N  0.59166823  0.53327825  0.53124226    -0.80100
C1069       C  0.98751697  0.65221472  0.53075272     0.79800
N1070       N  0.98691014  0.61331294  0.53033241    -0.78500
C1071       C  0.00060462  0.60084529  0.50024110     0.82300
N1072       N  0.51547443  0.62649774  0.47039237    -0.78400
C1073       C  0.51569536  0.66518798  0.46998192     0.82400
N1074       N  0.00138301  0.67825682  0.50043591    -0.80100
C1075       C  0.87418616  0.90799021  0.46948661     0.79800
N1076       N  0.90754282  0.94162929  0.47124076    -0.78500
C1077       C  0.93060076  0.94607907  0.50078366     0.82300
N1078       N  0.91988590  0.91696826  0.52931361    -0.78400
C1079       C  0.88630044  0.88315977  0.52769601     0.82400
N1080       N  0.86375269  0.87900242  0.49781860    -0.80100
C1081       C  0.52802213  0.67657394  0.40032619    -0.21700
C1082       C  0.53099986  0.69354045  0.43709130    -0.09700
C1083       C  0.54961623  0.73754868  0.44211840     0.29100
C1084       C  0.56668611  0.76361658  0.41128700    -0.21700
C1085       C  0.56479171  0.74650758  0.37482711    -0.09800
C1086       C  0.54433527  0.70286398  0.36926415     0.29100
F1087       F  0.54227761  0.68533044  0.33440928    -0.20300
H1088       H  0.51348230  0.64281544  0.39573900     0.17500
H1089       H  0.58254581  0.79718899  0.41612008     0.17500
F1090       F  0.55328198  0.75522686  0.47714004    -0.20300
C1091       C  0.66164247  0.94668720  0.41870069    -0.21700
C1092       C  0.64874114  0.94515153  0.38147049    -0.09700
C1093       C  0.62174414  0.95931408  0.37440534     0.29100
C1094       C  0.60810253  0.97465777  0.40426939    -0.21700
C1095       C  0.62148829  0.97673556  0.44151323    -0.09800
C1096       C  0.64854524  0.96258412  0.44831601     0.29100
F1097       F  0.66209787  0.96337420  0.48382637    -0.20300
H1098       H  0.68211475  0.93565224  0.42491861     0.17500
H1099       H  0.58999200  0.48540918  0.39951836     0.17500
F1100       F  0.60768521  0.95709306  0.33889995    -0.20300
C1101       C  0.81096332  0.88568238  0.44552733    -0.21700
C1102       C  0.84853851  0.90367225  0.43810353    -0.09700
C1103       C  0.86081175  0.91674460  0.40087212     0.29100
C1104       C  0.83560745  0.91118997  0.37154477    -0.21700
C1105       C  0.79777374  0.89268369  0.37886861    -0.09800
C1106       C  0.78585096  0.88046431  0.41655575     0.29100
F1107       F  0.74984788  0.86246061  0.42569617    -0.20300
H1108       H  0.80088441  0.87563930  0.47404406     0.17500
H1109       H  0.84572957  0.92076196  0.34298435     0.17500
F1110       F  0.89697351  0.93312749  0.39249611    -0.20300
C1111       C  0.55013367  0.84969386  0.13018123    -0.21700
C1112       C  0.56218648  0.81830548  0.12657418    -0.09700
C1113       C  0.55482230  0.79440762  0.09302906     0.29100
C1114       C  0.53714654  0.80346679  0.06258794    -0.21700
C1115       C  0.52738519  0.83711617  0.06502728    -0.09800
C1116       C  0.53313532  0.85937495  0.09968713     0.29100
F1117       F  0.52351086  0.89146515  0.10392832    -0.20300
H1118       H  0.55594119  0.86854750  0.15589992     0.17500
H1119       H  0.53269624  0.78543063  0.03653982     0.17500
F1120       F  0.56569467  0.76324192  0.08942956    -0.20300
C1121       C  0.66100058  0.72221174  0.07780808    -0.21700
C1122       C  0.65097734  0.70943834  0.11556131    -0.09700
C1123       C  0.62694405  0.66683930  0.12276271     0.29100
C1124       C  0.61351413  0.63785177  0.09277676    -0.21700
C1125       C  0.62413037  0.65054103  0.05518413    -0.09800
C1126       C  0.64802056  0.69307418  0.04792964     0.29100
F1127       F  0.65824655  0.70669695  0.01182775    -0.20300
H1128       H  0.67899346  0.75486414  0.07139367     0.17500
H1129       H  0.59529518  0.60523472  0.09904954     0.17500
F1130       F  0.61542796  0.65337995  0.15861085    -0.20300
C1131       C  0.78600530  0.89769429  0.08350503    -0.21700
C1132       C  0.79803671  0.90134245  0.12158288    -0.09700
C1133       C  0.83602190  0.92149354  0.12901060     0.29100
C1134       C  0.86085499  0.93922879  0.09921824    -0.21700
C1135       C  0.84842702  0.93761392  0.06164858    -0.09800
C1136       C  0.81080717  0.91562850  0.05390755     0.29100
F1137       F  0.79794246  0.91143761  0.01767141    -0.20300
H1138       H  0.75714513  0.88182242  0.07649090     0.17500
H1139       H  0.88979428  0.95574942  0.10575033     0.17500
F1140       F  0.84930716  0.92514792  0.16501308    -0.20300
C1141       C  0.95497909  0.66010265  0.63008998    -0.21700
C1142       C  0.93617958  0.68469539  0.62354574    -0.09700
C1143       C  0.93708439  0.70160269  0.58712051     0.29100
C1144       C  0.95530700  0.69248733  0.55741894    -0.21700
C1145       C  0.97206786  0.66551928  0.56333673    -0.09800
C1146       C  0.97248301  0.65018242  0.60024555     0.29100
F1147       F  0.49048599  0.62653284  0.60752899    -0.20300
H1148       H  0.95435415  0.64655258  0.65791420     0.17500
H1149       H  0.95486339  0.70499099  0.52936266     0.17500
F1150       F  0.91965613  0.72611377  0.58009869    -0.20300
C1151       C  0.84122750  0.55859359  0.92259544    -0.21700
C1152       C  0.85311758  0.55815405  0.88517430    -0.09700
C1153       C  0.87758818  0.54039841  0.87832881     0.29100
C1154       C  0.88981857  0.52364710  0.90829002    -0.21700
C1155       C  0.87745886  0.52346549  0.94552077    -0.09800
C1156       C  0.85287197  0.54097707  0.95244184     0.29100
F1157       F  0.84074989  0.54196872  0.98818452    -0.20300
H1158       H  0.82267554  0.57236792  0.92872159     0.17500
H1159       H  0.91051538  0.01460398  0.90270890     0.17500
F1160       F  0.89060559  0.54028660  0.84285550    -0.20300
C1161       C  0.96086185  0.79931052  0.86750951    -0.21700
C1162       C  0.94100394  0.75579886  0.87343315    -0.09700
C1163       C  0.94071030  0.73905817  0.90981208     0.29100
C1164       C  0.95839016  0.76585088  0.94022441    -0.21700
C1165       C  0.97579652  0.80977301  0.93502083    -0.09800
C1166       C  0.97775604  0.82626701  0.89810605     0.29100
F1167       F  0.99492434  0.86849816  0.89172791    -0.20300
H1168       H  0.96108508  0.81275576  0.83972500     0.17500
H1169       H  0.95663468  0.75236317  0.96827131     0.17500
F1170       F  0.92191304  0.69694787  0.91623333    -0.20300
C1171       C  0.63838611  0.55299192  0.60092766    -0.21700
C1172       C  0.65099883  0.55386455  0.56362725    -0.09700
C1173       C  0.68881651  0.57329308  0.55681549     0.29100
C1174       C  0.71344579  0.59069846  0.58675549    -0.21700
C1175       C  0.70118270  0.58902698  0.62438043    -0.09800
C1176       C  0.66317290  0.57007480  0.63118762     0.29100
F1177       F  0.64985766  0.56786787  0.66688212    -0.20300
H1178       H  0.60932087  0.53811368  0.60679516     0.17500
H1179       H  0.74238425  0.60507399  0.58029180     0.17500
F1180       F  0.70213303  0.57602062  0.52104535    -0.20300
C1181       C  0.87440841  0.86426375  0.59637669    -0.21700
C1182       C  0.87318987  0.85150430  0.55844962    -0.09700
C1183       C  0.85658009  0.80817100  0.54973728     0.29100
C1184       C  0.84252400  0.77813115  0.57869903    -0.21700
C1185       C  0.84383253  0.79064425  0.61690958    -0.09800
C1186       C  0.85939646  0.83431274  0.62532283     0.29100
F1187       F  0.86086091  0.84833935  0.66155190    -0.20300
H1188       H  0.88629857  0.89754418  0.60349776     0.17500
H1189       H  0.83086383  0.74498258  0.57115148     0.17500
F1190       F  0.85469122  0.79486329  0.51319612    -0.20300
C1191       C  0.64305087  0.57415411  0.90424361    -0.21700
C1192       C  0.65446008  0.59611209  0.93890273    -0.09700
C1193       C  0.69200573  0.62258361  0.94440905     0.29100
C1194       C  0.71712487  0.62754814  0.91566393    -0.21700
C1195       C  0.70562164  0.60694977  0.88044232    -0.09800
C1196       C  0.66822818  0.57968209  0.87516296     0.29100
F1197       F  0.65586822  0.55849564  0.84190596    -0.20300
H1198       H  0.61441843  0.55344729  0.89920906     0.17500
H1199       H  0.74564152  0.64874675  0.92072118     0.17500
F1200       F  0.70471583  0.64400425  0.97751273    -0.20300
loop_ 
_geom_bond_atom_site_label_1 
_geom_bond_atom_site_label_2 
_geom_bond_distance 
_geom_bond_site_symmetry_2 
_ccdc_geom_bond_type 
Zr1           O2   2.441       .  S
Zr1           O3   2.444       .  S
Zr1           O4   2.435       .  S
Zr1           O7   2.417       .  S
Zr1           O9   2.377       .  S
Zr1          O10   2.380       .  S
Zr1          O11   2.406       .  S
Zr1          O12   2.403       .  S
O2           H58   0.990       .  S
O2           H66   0.990       .  S
O3           C23   1.286       .  A
O4           C25   1.286       .  A
O5          Zr15   2.437       .  S
O5           C24   1.286       .  A
O6          Zr14   2.432       .  S
O6           C25   1.284       .  A
O7           C24   1.282       .  A
O8          Zr16   2.439       .  S
O8           C23   1.285       .  A
O9          Zr14   2.401       .  S
O9          Zr16   2.377       .  S
O10         Zr15   2.378       .  S
O10         Zr16   2.375       .  S
O10          H45   0.966       .  S
O11         Zr14   2.398       .  S
O11         Zr31   2.405       .  S
O11          H48   0.966       .  S
O12         Zr15   2.400       .  S
O12         Zr31   2.400       .  S
Zr13         O38   2.447       .  S
Zr13         O32   2.445       .  S
Zr13         O40   2.416       .  S
Zr13         O28   2.434       .  S
Zr13         O19   2.404       .  S
Zr13         O20   2.407       .  S
Zr13         O21   2.370       .  S
Zr13         O22   2.380       .  S
Zr14         O33   2.436       .  S
Zr14         O26   2.436       .  S
Zr14         O27   2.437       .  S
Zr14         O20   2.394       .  S
Zr14         O21   2.392       .  S
Zr15         O17   2.436       .  S
Zr15         O39   2.436       .  S
Zr15         O41   2.450       .  S
Zr15         O19   2.390       .  S
Zr15         O22   2.373       .  S
Zr16         O42   2.435       .  S
Zr16         O43   2.434       .  S
Zr16         O18   2.436       .  S
Zr16         O19   2.396       .  S
Zr16         O20   2.406       .  S
O17          H54   0.990       .  S
O18          H49   0.990   1_545  S
O18          H63   0.990       .  S
O20          H46   0.966       .  S
O21         Zr31   2.372       .  S
O22         Zr31   2.381       .  S
O22          H47   0.965       .  S
C23         C252   1.487       .  S
C24         C262   1.469       .  S
C25         C295   1.486       .  S
O26          H62   0.990       .  S
O27          C29   1.285       .  A
O28          C29   1.286       .  A
C29         C275   1.489       .  S
O30         Zr31   2.441       .  S
O30          H59   0.990       .  S
Zr31         O34   2.440       .  S
Zr31         O35   2.436       .  S
Zr31         O36   2.440       .  S
O32          C37   1.288       .  A
O33          H50   0.990       .  S
O33          H65   0.990       .  S
O34          H51   0.990       .  S
O35          H55   0.990       .  S
O35          H64   0.990       .  S
O36          C37   1.286       .  A
C37         C285   1.486       .  S
O38          H57   0.990       .  S
O38          H61   0.990       .  S
O39          H53   0.990       .  S
O39          H60   0.990       .  S
O40          C44   1.281       .  A
O41          C44   1.288       .  A
O42          H52   0.990       .  S
O43          H56   0.990       .  S
C44         C242   1.475       .  S
C67          C77   1.466       .  S
C67          N72   1.356       .  A
C67         N968   1.363       .  A
N68          C69   1.363       .  A
N68         C967   1.363   1_446  A
C69          C83   1.465       .  S
C69         N370   1.356   1_545  A
N70         C369   1.356       .  A
N70         C671   1.353       .  A
C71         C687   1.455       .  S
C71          N72   1.354   1_556  A
C71         N670   1.354       .  A
C73         C235   1.477       .  S
C73          N74   1.358       .  A
C73          N78   1.358       .  A
N74         C375   1.358   1_554  A
C75         C255   1.487       .  S
C75          N76   1.363       .  A
C75         N374   1.359   1_546  A
N76         C377   1.360   1_546  A
C77          N78   1.359       .  A
C77         N376   1.359   1_554  A
C79         C292   1.487       .  S
C79          N80   1.356       .  A
C79          N84   1.359       .  A
N80          C81   1.356   1_556  A
C81         C225   1.480       .  S
C81          N82   1.361       .  A
N82          C83   1.361   1_554  A
C83          N84   1.361       .  A
C85         C215   1.482       .  S
C85          N86   1.358       .  A
C85          N90   1.360   1_554  A
N86          C87   1.354   1_554  A
C87         C671   1.455       .  S
C87         N688   1.353   1_455  A
N88          C89   1.358       .  A
N88         C687   1.354       .  A
C89         C265   1.478       .  S
C89         N690   1.360       .  A
N90         C689   1.360   1_455  A
Zr91         O92   2.438       .  S
Zr91         O93   2.444       .  S
Zr91         O94   2.428       .  S
Zr91         O97   2.408       .  S
Zr91         O99   2.374       .  S
Zr91        O100   2.378       .  S
Zr91        O101   2.405       .  S
Zr91        O102   2.396       .  S
O92         H148   0.990       .  S
O92         H156   0.990       .  S
O93         C113   1.287       .  A
O94         C115   1.284       .  A
O95        Zr105   2.438       .  S
O95         C114   1.286       .  A
O96        Zr104   2.438       .  S
O96         C115   1.286       .  A
O97         C114   1.281       .  A
O98        Zr106   2.437       .  S
O98         C113   1.285       .  A
O99        Zr104   2.398       .  S
O99        Zr106   2.376       .  S
O100       Zr105   2.374       .  S
O100       Zr106   2.379       .  S
O100        H135   0.964       .  S
O101       Zr104   2.398       .  S
O101       Zr121   2.406       .  S
O101        H138   0.966       .  S
O102       Zr105   2.390       .  S
O102       Zr121   2.393       .  S
Zr103       O128   2.444       .  S
Zr103       O122   2.433       .  S
Zr103       O130   2.416       .  S
Zr103       O118   2.426       .  S
Zr103       O109   2.402       .  S
Zr103       O110   2.406       .  S
Zr103       O111   2.374       .  S
Zr103       O112   2.378       .  S
Zr104       O123   2.437       .  S
Zr104       O116   2.435       .  S
Zr104       O117   2.433       .  S
Zr104       O110   2.396       .  S
Zr104       O111   2.395       .  S
Zr105       O107   2.435       .  S
Zr105       O129   2.434       .  S
Zr105       O131   2.441       .  S
Zr105       O109   2.393       .  S
Zr105       O112   2.369       .  S
Zr106       O132   2.435       .  S
Zr106       O133   2.435       .  S
Zr106       O108   2.438       .  S
Zr106       O109   2.397       .  S
Zr106       O110   2.406       .  S
O107        H144   0.990       .  S
O108        H139   0.990       .  S
O108        H153   0.990       .  S
O110        H136   0.967       .  S
O111       Zr121   2.371       .  S
O112       Zr121   2.377       .  S
O112        H137   0.965       .  S
C113        C192   1.485       .  S
C114        C185   1.471       .  S
C115        C205   1.487       .  S
O116        H152   0.990       .  S
O117        C119   1.285       .  A
O118        C119   1.285       .  A
C119        C232   1.488       .  S
O120       Zr121   2.439       .  S
O120        H149   0.991       .  S
Zr121       O124   2.438       .  S
Zr121       O125   2.437       .  S
Zr121       O126   2.440       .  S
O122        C127   1.285       .  A
O123        H140   0.990       .  S
O123        H155   0.990       .  S
O124        H141   0.990       .  S
O125        H145   0.990       .  S
O125        H154   0.990       .  S
O126        C127   1.285       .  A
C127        C222   1.481       .  S
O128        H147   0.990       .  S
O128        H151   0.990       .  S
O129        H143   0.990       .  S
O129        H150   0.990       .  S
O130        C134   1.281       .  A
O131        C134   1.286       .  A
O132        H142   0.990       .  S
O133        H146   0.990       .  S
C134        C212   1.468       .  S
C157        C167   1.472       .  S
C157        N162   1.360       .  A
C157        N458   1.363   1_445  A
N158        C457   1.361       .  A
N158        C759   1.361   1_455  A
C159        C177   1.466       .  S
C159        N758   1.361       .  A
C159        N460   1.359       .  A
N160        C459   1.359   1_545  A
N160        C761   1.356       .  A
C161        C771   1.467       .  S
C161        N162   1.358   1_655  A
C161        N760   1.356       .  A
C163        C272   1.485       .  S
C163        N164   1.354       .  A
C163        N168   1.360       .  A
N164        C465   1.354   1_545  A
C165        C195   1.489       .  S
C165        N166   1.364       .  A
C165        N464   1.357       .  A
N166        C467   1.364       .  A
C167        N168   1.362       .  A
C167        N466   1.366   1_545  A
C169        C245   1.482       .  S
C169        N170   1.360       .  A
C169        N174   1.359       .  A
N170        C171   1.358       .  A
C171        C761   1.465       .  S
C171        N772   1.358       .  A
N172        C173   1.360       .  A
N172        C771   1.358   1_455  A
C173        C182   1.476       .  S
C173        N774   1.359   1_455  A
N174        C773   1.360       .  A
C175        C202   1.483       .  S
C175        N176   1.357       .  A
C175        N180   1.358       .  A
N176        C177   1.358       .  A
C177        N178   1.363       .  A
N178        C179   1.363       .  A
C179        C282   1.484       .  S
C179        N180   1.356       .  A
C181        C182   1.405       .  A
C181        C186   1.399       .  A
C181        H188   1.083       .  S
C182        C183   1.407       .  A
C183        C184   1.395       .  A
C183        F190   1.357       .  S
C184        C185   1.403       .  A
C184        H189   1.084       .  S
C185        C186   1.405       .  A
C186        F187   1.358       .  S
C191        C192   1.402       .  A
C191        C196   1.399       .  A
C191        H198   1.083       .  S
C192        C193   1.411       .  A
C193        C194   1.403       .  A
C193        F200   1.358       .  S
C194        C195   1.405       .  A
C194        H499   1.083       .  S
C195        C196   1.412       .  A
C196        F197   1.357       .  S
H199        C494   1.083       .  S
C201        C202   1.402       .  A
C201        C206   1.391       .  A
C201        H208   1.083       .  S
C202        C203   1.410       .  A
C203        C204   1.404       .  A
C203        F210   1.357       .  S
C204        C205   1.408       .  A
C204        H209   1.083       .  S
C205        C206   1.410       .  A
C206        F207   1.355       .  S
C211        C212   1.400       .  A
C211        C216   1.396       .  A
C211        H218   1.084       .  S
C212        C213   1.404       .  A
C213        C214   1.399       .  A
C213        F220   1.358       .  S
C214        C215   1.407       .  A
C214        H219   1.083       .  S
C215        C216   1.410       .  A
C216        F217   1.357       .  S
C221        C222   1.403       .  A
C221        C226   1.397       .  A
C221        H228   1.083       .  S
C222        C223   1.411       .  A
C223        C224   1.400       .  A
C223        F230   1.358       .  S
C224        C225   1.404       .  A
C224        H229   1.083       .  S
C225        C226   1.408       .  A
C226        F227   1.357       .  S
C231        C232   1.408       .  A
C231        C236   1.396       .  A
C231        H238   1.083       .  S
C232        C233   1.412       .  A
C233        C234   1.400       .  A
C233        F240   1.357       .  S
C234        C235   1.403       .  A
C234        H239   1.083       .  S
C235        C236   1.404       .  A
C236        F237   1.358       .  S
C241        C242   1.403       .  A
C241        C246   1.400       .  A
C241        H248   1.084       .  S
C242        C243   1.407       .  A
C243        C244   1.399       .  A
C243        F250   1.358       .  S
C244        C245   1.406       .  A
C244        H249   1.083       .  S
C245        C246   1.409       .  A
C246        F847   1.357       .  S
F247        C846   1.357       .  S
C251        C252   1.406       .  A
C251        C256   1.403       .  A
C251        H258   1.083       .  S
C252        C253   1.410       .  A
C253        C254   1.400       .  A
C253        F260   1.357       .  S
C254        C255   1.404       .  A
C254        H559   1.083       .  S
C255        C256   1.410       .  A
C256        F257   1.358       .  S
H259        C554   1.083       .  S
C261        C262   1.401       .  A
C261        C266   1.397       .  A
C261        H268   1.084       .  S
C262        C263   1.405       .  A
C263        C264   1.397       .  A
C263        F270   1.358       .  S
C264        C265   1.405       .  A
C264        H269   1.083       .  S
C265        C266   1.409       .  A
C266        F267   1.358       .  S
C271        C272   1.406       .  A
C271        C276   1.405       .  A
C271        H278   1.083       .  S
C272        C273   1.409       .  A
C273        C274   1.394       .  A
C273        F280   1.358       .  S
C274        C275   1.405       .  A
C274        H279   1.083       .  S
C275        C276   1.412       .  A
C276        F277   1.357       .  S
C281        C282   1.404       .  A
C281        C286   1.402       .  A
C281        H288   1.083       .  S
C282        C283   1.410       .  A
C283        C284   1.400       .  A
C283        F290   1.357       .  S
C284        C285   1.404       .  A
C284        H289   1.083       .  S
C285        C286   1.412       .  A
C286        F287   1.358       .  S
C291        C292   1.407       .  A
C291        C296   1.403       .  A
C291        H298   1.083       .  S
C292        C293   1.410       .  A
C293        C294   1.394       .  A
C293        F300   1.357       .  S
C294        C295   1.404       .  A
C294        H299   1.083       .  S
C295        C296   1.411       .  A
C296        F297   1.357       .  S
Zr301       O302   2.441       .  S
Zr301       O303   2.433       .  S
Zr301       O304   2.430       .  S
Zr301       O307   2.405       .  S
Zr301       O309   2.374       .  S
Zr301       O310   2.382       .  S
Zr301       O311   2.403       .  S
Zr301       O312   2.398       .  S
O302        H358   0.990       .  S
O302        H366   0.990       .  S
O303        C323   1.284       .  A
O304        C325   1.284       .  A
O305       Zr315   2.442       .  S
O305        C324   1.287       .  A
O306       Zr314   2.440       .  S
O306        C325   1.286       .  A
O307        C324   1.281       .  A
O308       Zr316   2.444       .  S
O308        C323   1.286       .  A
O309       Zr314   2.400       .  S
O309       Zr316   2.374       .  S
O310       Zr315   2.381       .  S
O310       Zr316   2.375       .  S
O310        H345   0.966       .  S
O311       Zr314   2.397       .  S
O311       Zr331   2.404       .  S
O311        H348   0.966       .  S
O312       Zr315   2.395       .  S
O312       Zr331   2.391       .  S
Zr313       O338   2.446       .  S
Zr313       O332   2.443       .  S
Zr313       O340   2.417       .  S
Zr313       O328   2.424       .  S
Zr313       O319   2.405       .  S
Zr313       O320   2.407       .  S
Zr313       O321   2.376       .  S
Zr313       O322   2.380       .  S
Zr314       O333   2.436       .  S
Zr314       O326   2.435       .  S
Zr314       O327   2.443       .  S
Zr314       O320   2.393       .  S
Zr314       O321   2.395       .  S
Zr315       O317   2.436       .  S
Zr315       O339   2.435       .  S
Zr315       O341   2.450       .  S
Zr315       O319   2.390       .  S
Zr315       O322   2.374       .  S
Zr316       O342   2.436       .  S
Zr316       O343   2.435       .  S
Zr316       O318   2.436       .  S
Zr316       O319   2.400       .  S
Zr316       O320   2.407       .  S
O317        H354   0.990       .  S
O318        H349   0.990       .  S
O318        H363   0.990       .  S
O320        H346   0.966       .  S
O321       Zr331   2.376       .  S
O322       Zr331   2.378       .  S
O322        H347   0.965       .  S
C323        C552   1.488       .  S
C324        C562   1.470       .  S
C325        C595   1.489       .  S
O326        H362   0.990       .  S
O327        C329   1.287       .  A
O328        C329   1.285       .  A
C329        C575   1.491       .  S
O330       Zr331   2.436       .  S
O330        H359   0.990       .  S
Zr331       O334   2.435       .  S
Zr331       O335   2.437       .  S
Zr331       O336   2.435       .  S
O332        C337   1.287       .  A
O333        H350   0.990       .  S
O333        H365   0.990       .  S
O334        H351   0.990       .  S
O335        H355   0.990       .  S
O335        H364   0.990       .  S
O336        C337   1.285       .  A
C337        C585   1.492       .  S
O338        H357   0.990       .  S
O338        H361   0.990       .  S
O339        H353   0.990       .  S
O339        H360   0.990       .  S
O340        C344   1.281       .  A
O341        C344   1.288       .  A
O342        H352   0.990       .  S
O343        H356   0.990       .  S
C344        C542   1.476       .  S
C367        C377   1.470       .  S
C367        N668   1.364   1_564  A
C367        N372   1.357       .  A
N368        C667   1.363   1_455  A
N368        C369   1.363   1_554  A
C369        C383   1.465       .  S
N370        C971   1.354       .  A
C371        C987   1.457       .  S
C371        N970   1.354       .  A
C371        N372   1.355   1_556  A
C373        C535   1.480       .  S
C373        N374   1.359       .  A
C373        N378   1.359       .  A
C375        C555   1.480       .  S
C375        N376   1.361       .  A
C377        N378   1.360       .  A
C379        C592   1.487       .  S
C379        N380   1.357       .  A
C379        N384   1.359       .  A
N380        C381   1.357   1_556  A
C381        C525   1.478       .  S
C381        N382   1.361       .  A
N382        C383   1.360   1_554  A
C383        N384   1.360       .  A
C385        C515   1.482       .  S
C385        N386   1.358       .  A
C385        N390   1.361       .  A
N386        C387   1.353   1_554  A
C387        C971   1.454       .  S
C387        N988   1.353   1_455  A
N388        C987   1.353       .  A
N388        C389   1.358       .  A
C389        C565   1.474       .  S
C389        N990   1.360   1_556  A
N390        C989   1.360   1_454  A
Zr391       O392   2.440       .  S
Zr391       O393   2.443       .  S
Zr391       O394   2.418       .  S
Zr391       O397   2.401       .  S
Zr391       O399   2.375       .  S
Zr391       O400   2.376       .  S
Zr391       O401   2.404       .  S
Zr391       O402   2.395       .  S
O392        H448   0.990       .  S
O392        H456   0.990       .  S
O393        C413   1.286       .  A
O394        C415   1.281       .  A
O395       Zr405   2.443       .  S
O395        C414   1.286       .  A
O396       Zr404   2.444       .  S
O396        C415   1.287       .  A
O397        C414   1.279       .  A
O398       Zr406   2.435       .  S
O398        C413   1.284       .  A
O399       Zr404   2.401       .  S
O399       Zr406   2.378       .  S
O400       Zr405   2.376       .  S
O400       Zr406   2.382       .  S
O400        H435   0.964       .  S
O401       Zr404   2.395       .  S
O401       Zr421   2.407       .  S
O401        H438   0.966       .  S
O402       Zr405   2.387       .  S
O402       Zr421   2.395       .  S
Zr403       O428   2.445       .  S
Zr403       O422   2.432       .  S
Zr403       O430   2.428       .  S
Zr403       O418   2.428       .  S
Zr403       O409   2.396       .  S
Zr403       O410   2.408       .  S
Zr403       O411   2.374       .  S
Zr403       O412   2.382       .  S
Zr404       O423   2.439       .  S
Zr404       O416   2.435       .  S
Zr404       O417   2.439       .  S
Zr404       O410   2.400       .  S
Zr404       O411   2.390       .  S
Zr405       O407   2.436       .  S
Zr405       O429   2.439       .  S
Zr405       O431   2.430       .  S
Zr405       O409   2.396       .  S
Zr405       O412   2.376       .  S
Zr406       O432   2.434       .  S
Zr406       O433   2.436       .  S
Zr406       O408   2.438       .  S
Zr406       O409   2.392       .  S
Zr406       O410   2.407       .  S
O407        H444   0.990       .  S
O408        H439   0.990   1_565  S
O408        H453   0.990       .  S
O410        H436   0.967       .  S
O411       Zr421   2.367       .  S
O412       Zr421   2.379       .  S
O412        H437   0.965       .  S
C413        C492   1.484       .  S
C414        C485   1.469       .  S
C415        C505   1.490       .  S
O416        H452   0.990       .  S
O417        C419   1.287       .  A
O418        C419   1.285       .  A
C419        C532   1.491       .  S
O420       Zr421   2.438       .  S
O420        H449   0.991       .  S
Zr421       O424   2.438       .  S
Zr421       O425   2.439       .  S
Zr421       O426   2.439       .  S
O422        C427   1.285       .  A
O423        H440   0.990       .  S
O423        H455   0.990       .  S
O424        H441   0.990       .  S
O425        H445   0.989       .  S
O425        H454   0.990       .  S
O426        C427   1.286       .  A
C427        C522   1.483       .  S
O428        H447   0.990       .  S
O428        H451   0.990       .  S
O429        H443   0.990       .  S
O429        H450   0.990       .  S
O430        C434   1.284       .  A
O431        C434   1.284       .  A
O432        H442   0.990       .  S
O433        H446   0.990       .  S
C434        C512   1.467       .  S
C457        C467   1.468       .  S
C457        N462   1.359       .  A
N458       C1059   1.362       .  A
C459        C477   1.468       .  S
C459       N1058   1.362       .  A
N460       C1061   1.356       .  A
C461       C1071   1.463       .  S
C461       N1060   1.356   1_455  A
C461        N462   1.357       .  A
C463        C572   1.480       .  S
C463        N464   1.356       .  A
C463        N468   1.357       .  A
C465        C495   1.488       .  S
C465        N466   1.364       .  A
C467        N468   1.360       .  A
C469        C545   1.481       .  S
C469        N470   1.361       .  A
C469        N474   1.359       .  A
N470        C471   1.358       .  A
C471       C1061   1.465       .  S
C471       N1072   1.357       .  A
N472       C1071   1.356       .  A
N472        C473   1.359       .  A
C473        C482   1.476       .  S
C473       N1074   1.359       .  A
N474       C1073   1.359       .  A
C475        C502   1.475       .  S
C475        N476   1.356       .  A
C475        N480   1.356       .  A
N476        C477   1.358       .  A
C477        N478   1.364       .  A
N478        C479   1.364       .  A
C479        C582   1.479       .  S
C479        N480   1.356       .  A
C481        C482   1.406       .  A
C481        C486   1.398       .  A
C481        H488   1.083       .  S
C482        C483   1.407       .  A
C483        C484   1.396       .  A
C483        F490   1.358       .  S
C484        C485   1.404       .  A
C484        H489   1.084       .  S
C485        C486   1.403       .  A
C486        F487   1.358       .  S
C491        C492   1.402       .  A
C491        C496   1.398       .  A
C491        H498   1.083       .  S
C492        C493   1.411       .  A
C493        C494   1.404       .  A
C493        F500   1.358       .  S
C494        C495   1.405       .  A
C495        C496   1.412       .  A
C496        F497   1.357       .  S
C501        C502   1.399       .  A
C501        C506   1.393       .  A
C501        H508   1.084       .  S
C502        C503   1.406       .  A
C503        C504   1.402       .  A
C503        F510   1.357       .  S
C504        C505   1.409       .  A
C504        H509   1.083       .  S
C505        C506   1.414       .  A
C506        F507   1.356       .  S
C511        C512   1.400       .  A
C511        C516   1.397       .  A
C511        H518   1.084       .  S
C512        C513   1.402       .  A
C513        C514   1.398       .  A
C513        F520   1.357       .  S
C514        C515   1.407       .  A
C514        H519   1.083       .  S
C515        C516   1.412       .  A
C516        F517   1.358       .  S
C521        C522   1.405       .  A
C521        C526   1.399       .  A
C521        H528   1.083       .  S
C522        C523   1.410       .  A
C523        C524   1.400       .  A
C523        F530   1.357       .  S
C524        C525   1.403       .  A
C524        H529   1.083       .  S
C525        C526   1.407       .  A
C526        F527   1.357       .  S
C531        C532   1.409       .  A
C531        C536   1.397       .  A
C531        H538   1.083       .  S
C532        C533   1.412       .  A
C533        C534   1.402       .  A
C533        F540   1.357       .  S
C534        C535   1.404       .  A
C534        H539   1.083       .  S
C535        C536   1.405       .  A
C536        F537   1.358       .  S
C541        C542   1.403       .  A
C541        C546   1.398       .  A
C541        H548   1.084       .  S
C542        C543   1.408       .  A
C543        C544   1.400       .  A
C543        F550   1.358       .  S
C544        C545   1.406       .  A
C544        H549   1.083       .  S
C545        C546   1.407       .  A
C546       F1147   1.357       .  S
F547       C1146   1.357       .  S
C551        C552   1.408       .  A
C551        C556   1.402       .  A
C551        H558   1.083       .  S
C552        C553   1.410       .  A
C553        C554   1.399       .  A
C553        F560   1.357       .  S
C554        C555   1.403       .  A
C555        C556   1.407       .  A
C556        F557   1.358       .  S
C561        C562   1.401       .  A
C561        C566   1.398       .  A
C561        H568   1.083       .  S
C562        C563   1.407       .  A
C563        C564   1.395       .  A
C563        F570   1.358       .  S
C564        C565   1.402       .  A
C564        H569   1.083       .  S
C565        C566   1.409       .  A
C566        F567   1.358       .  S
C571        C572   1.405       .  A
C571        C576   1.404       .  A
C571        H578   1.083       .  S
C572        C573   1.405       .  A
C573        C574   1.394       .  A
C573        F580   1.358       .  S
C574        C575   1.408       .  A
C574        H579   1.083       .  S
C575        C576   1.412       .  A
C576        F577   1.357       .  S
C581        C582   1.401       .  A
C581        C586   1.402       .  A
C581        H588   1.083       .  S
C582        C583   1.406       .  A
C583        C584   1.400       .  A
C583        F590   1.358       .  S
C584        C585   1.407       .  A
C584        H589   1.083       .  S
C585        C586   1.415       .  A
C586        F587   1.357       .  S
C591        C592   1.407       .  A
C591        C596   1.403       .  A
C591        H598   1.083       .  S
C592        C593   1.409       .  A
C593        C594   1.396       .  A
C593        F600   1.358       .  S
C594        C595   1.407       .  A
C594        H599   1.083       .  S
C595        C596   1.410       .  A
C596        F597   1.357       .  S
Zr601       O602   2.441       .  S
Zr601       O603   2.436       .  S
Zr601       O604   2.425       .  S
Zr601       O607   2.409       .  S
Zr601       O609   2.376       .  S
Zr601       O610   2.380       .  S
Zr601       O611   2.405       .  S
Zr601       O612   2.396       .  S
O602        H658   0.990       .  S
O602        H666   0.990       .  S
O603        C623   1.284       .  A
O604        C625   1.283       .  A
O605       Zr615   2.440       .  S
O605        C624   1.286       .  A
O606       Zr614   2.434       .  S
O606        C625   1.284       .  A
O607        C624   1.281       .  A
O608       Zr616   2.439       .  S
O608        C623   1.285       .  A
O609       Zr614   2.400       .  S
O609       Zr616   2.373       .  S
O610       Zr615   2.382       .  S
O610       Zr616   2.375       .  S
O610        H645   0.965       .  S
O611       Zr614   2.402       .  S
O611       Zr631   2.404       .  S
O611        H648   0.966       .  S
O612       Zr615   2.396       .  S
O612       Zr631   2.394       .  S
Zr613       O638   2.447       .  S
Zr613       O632   2.446       .  S
Zr613       O640   2.413       .  S
Zr613       O628   2.431       .  S
Zr613       O619   2.407       .  S
Zr613       O620   2.406       .  S
Zr613       O621   2.374       .  S
Zr613       O622   2.378       .  S
Zr614       O633   2.437       .  S
Zr614       O626   2.435       .  S
Zr614       O627   2.434       .  S
Zr614       O620   2.393       .  S
Zr614       O621   2.398       .  S
Zr615       O617   2.435       .  S
Zr615       O639   2.438       .  S
Zr615       O641   2.450       .  S
Zr615       O619   2.392       .  S
Zr615       O622   2.371       .  S
Zr616       O642   2.434       .  S
Zr616       O643   2.435       .  S
Zr616       O618   2.438       .  S
Zr616       O619   2.400       .  S
Zr616       O620   2.406       .  S
O617        H654   0.990       .  S
O618        H649   0.990   1_545  S
O618        H663   0.990       .  S
O620        H646   0.966       .  S
O621       Zr631   2.374       .  S
O622       Zr631   2.379       .  S
O622        H647   0.965       .  S
C623        C852   1.484       .  S
C624        C862   1.467       .  S
C625        C895   1.485       .  S
O626        H662   0.990       .  S
O627        C629   1.285       .  A
O628        C629   1.286       .  A
C629        C875   1.488       .  S
O630       Zr631   2.438       .  S
O630        H659   0.990       .  S
Zr631       O634   2.435       .  S
Zr631       O635   2.436       .  S
Zr631       O636   2.434       .  S
O632        C637   1.287       .  A
O633        H650   0.990       .  S
O633        H665   0.990       .  S
O634        H651   0.990       .  S
O635        H655   0.990       .  S
O635        H664   0.990       .  S
O636        C637   1.284       .  A
C637        C885   1.485       .  S
O638        H657   0.990       .  S
O638        H661   0.990       .  S
O639        H653   0.990       .  S
O639        H660   0.990       .  S
O640        C644   1.281       .  A
O641        C644   1.288       .  A
O642        H652   0.990       .  S
O643        H656   0.990       .  S
C644        C842   1.474       .  S
C667        C677   1.466       .  S
C667        N672   1.357       .  A
N668        C669   1.364       .  A
C669        C683   1.468       .  S
C669        N970   1.357   1_545  A
N670        C969   1.357       .  A
C671        N672   1.354   1_456  A
C673        C835   1.478       .  S
C673        N674   1.358       .  A
C673        N678   1.359       .  A
N674        C975   1.358   1_554  A
C675        C855   1.483       .  S
C675        N974   1.359   1_546  A
C675        N676   1.362       .  A
N676        C977   1.359   1_546  A
C677        N976   1.359   1_554  A
C677        N678   1.359       .  A
C679        C892   1.486       .  S
C679        N680   1.356       .  A
C679        N684   1.360       .  A
N680        C681   1.355   1_556  A
C681        C825   1.480       .  S
C681        N682   1.361       .  A
N682        C683   1.361   1_554  A
C683        N684   1.361       .  A
C685        C815   1.479       .  S
C685        N686   1.357       .  A
C685        N690   1.360   1_554  A
N686        C687   1.353   1_554  A
N688        C689   1.357       .  A
C689        C865   1.477       .  S
Zr691       O692   2.438       .  S
Zr691       O693   2.448       .  S
Zr691       O694   2.423       .  S
Zr691       O697   2.415       .  S
Zr691       O699   2.376       .  S
Zr691       O700   2.374       .  S
Zr691       O701   2.409       .  S
Zr691       O702   2.393       .  S
O692        H748   0.990       .  S
O692        H756   0.990       .  S
O693        C713   1.288       .  A
O694        C715   1.283       .  A
O695       Zr705   2.439       .  S
O695        C714   1.286       .  A
O696       Zr704   2.440       .  S
O696        C715   1.286       .  A
O697        C714   1.282       .  A
O698       Zr706   2.436       .  S
O698        C713   1.285       .  A
O699       Zr704   2.398       .  S
O699       Zr706   2.375       .  S
O700       Zr705   2.371       .  S
O700       Zr706   2.381       .  S
O700        H735   0.964       .  S
O701       Zr704   2.398       .  S
O701       Zr721   2.407       .  S
O701        H738   0.966       .  S
O702       Zr705   2.386       .  S
O702       Zr721   2.394       .  S
Zr703       O728   2.445       .  S
Zr703       O722   2.438       .  S
Zr703       O730   2.415       .  S
Zr703       O718   2.420       .  S
Zr703       O709   2.400       .  S
Zr703       O710   2.406       .  S
Zr703       O711   2.372       .  S
Zr703       O712   2.376       .  S
Zr704       O723   2.437       .  S
Zr704       O716   2.435       .  S
Zr704       O717   2.442       .  S
Zr704       O710   2.394       .  S
Zr704       O711   2.391       .  S
Zr705       O707   2.435       .  S
Zr705       O729   2.435       .  S
Zr705       O731   2.433       .  S
Zr705       O709   2.397       .  S
Zr705       O712   2.371       .  S
Zr706       O732   2.435       .  S
Zr706       O733   2.436       .  S
Zr706       O708   2.439       .  S
Zr706       O709   2.395       .  S
Zr706       O710   2.405       .  S
O707        H744   0.990       .  S
O708        H739   0.990       .  S
O708        H753   0.990       .  S
O710        H736   0.967       .  S
O711       Zr721   2.367       .  S
O712       Zr721   2.376       .  S
O712        H737   0.965       .  S
C713        C792   1.484       .  S
C714        C785   1.473       .  S
C715        C805   1.486       .  S
O716        H752   0.990       .  S
O717        C719   1.287       .  A
O718        C719   1.284       .  A
C719        C832   1.489       .  S
O720       Zr721   2.438       .  S
O720        H749   0.990       .  S
Zr721       O724   2.437       .  S
Zr721       O725   2.436       .  S
Zr721       O726   2.433       .  S
O722        C727   1.286       .  A
O723        H740   0.990       .  S
O723        H755   0.990       .  S
O724        H741   0.990       .  S
O725        H745   0.990       .  S
O725        H754   0.990       .  S
O726        C727   1.285       .  A
C727        C822   1.481       .  S
O728        H747   0.990       .  S
O728        H751   0.990       .  S
O729        H743   0.990       .  S
O729        H750   0.990       .  S
O730        C734   1.282       .  A
O731        C734   1.285       .  A
O732        H742   0.990       .  S
O733        H746   0.990       .  S
C734        C812   1.464       .  S
C757        C767   1.470       .  S
C757       N1058   1.362   1_545  A
C757        N762   1.360       .  A
N758       C1057   1.361       .  A
C759        C777   1.464       .  S
C759       N1060   1.358       .  A
N760       C1059   1.358   1_545  A
C761        N762   1.357       .  A
C763        C872   1.482       .  S
C763        N764   1.353       .  A
C763        N768   1.359       .  A
N764       C1065   1.354   1_545  A
C765        C795   1.486       .  S
C765       N1064   1.357       .  A
C765        N766   1.363       .  A
N766       C1067   1.363       .  A
C767       N1066   1.365   1_545  A
C767        N768   1.361       .  A
C769        C845   1.481       .  S
C769        N770   1.360       .  A
C769        N774   1.358       .  A
N770        C771   1.357       .  A
N772        C773   1.360       .  A
C773        C782   1.480       .  S
C775        C802   1.480       .  S
C775        N776   1.356       .  A
C775        N780   1.356       .  A
N776        C777   1.358       .  A
C777        N778   1.362       .  A
N778        C779   1.363       .  A
C779        C882   1.481       .  S
C779        N780   1.355       .  A
C781        C782   1.407       .  A
C781        C786   1.402       .  A
C781        H788   1.083       .  S
C782        C783   1.407       .  A
C783        C784   1.395       .  A
C783        F790   1.357       .  S
C784        C785   1.403       .  A
C784        H789   1.084       .  S
C785        C786   1.406       .  A
C786        F787   1.358       .  S
C791        C792   1.402       .  A
C791        C796   1.399       .  A
C791        H798   1.083       .  S
C792        C793   1.411       .  A
C793        C794   1.402       .  A
C793        F800   1.358       .  S
C794        C795   1.405       .  A
C794       H1099   1.083       .  S
C795        C796   1.411       .  A
C796        F797   1.357       .  S
H799       C1094   1.083       .  S
C801        C802   1.402       .  A
C801        C806   1.391       .  A
C801        H808   1.083       .  S
C802        C803   1.409       .  A
C803        C804   1.402       .  A
C803        F810   1.357       .  S
C804        C805   1.408       .  A
C804        H809   1.083       .  S
C805        C806   1.410       .  A
C806        F807   1.356       .  S
C811        C812   1.400       .  A
C811        C816   1.395       .  A
C811        H818   1.084       .  S
C812        C813   1.403       .  A
C813        C814   1.397       .  A
C813        F820   1.358       .  S
C814        C815   1.406       .  A
C814        H819   1.083       .  S
C815        C816   1.410       .  A
C816        F817   1.358       .  S
C821        C822   1.403       .  A
C821        C826   1.398       .  A
C821        H828   1.083       .  S
C822        C823   1.410       .  A
C823        C824   1.400       .  A
C823        F830   1.358       .  S
C824        C825   1.403       .  A
C824        H829   1.083       .  S
C825        C826   1.409       .  A
C826        F827   1.357       .  S
C831        C832   1.409       .  A
C831        C836   1.396       .  A
C831        H838   1.083       .  S
C832        C833   1.411       .  A
C833        C834   1.401       .  A
C833        F840   1.357       .  S
C834        C835   1.403       .  A
C834        H839   1.083       .  S
C835        C836   1.405       .  A
C836        F837   1.358       .  S
C841        C842   1.401       .  A
C841        C846   1.397       .  A
C841        H848   1.083       .  S
C842        C843   1.408       .  A
C843        C844   1.401       .  A
C843        F850   1.358       .  S
C844        C845   1.406       .  A
C844        H849   1.083       .  S
C845        C846   1.408       .  A
C851        C852   1.406       .  A
C851        C856   1.402       .  A
C851        H858   1.083       .  S
C852        C853   1.409       .  A
C853        C854   1.399       .  A
C853        F860   1.357       .  S
C854        C855   1.403       .  A
C854       H1159   1.083       .  S
C855        C856   1.409       .  A
C856        F857   1.358       .  S
H859       C1154   1.083       .  S
C861        C862   1.401       .  A
C861        C866   1.397       .  A
C861        H868   1.084       .  S
C862        C863   1.405       .  A
C863        C864   1.396       .  A
C863        F870   1.358       .  S
C864        C865   1.404       .  A
C864        H869   1.083       .  S
C865        C866   1.410       .  A
C866        F867   1.358       .  S
C871        C872   1.405       .  A
C871        C876   1.403       .  A
C871        H878   1.083       .  S
C872        C873   1.408       .  A
C873        C874   1.394       .  A
C873        F880   1.358       .  S
C874        C875   1.405       .  A
C874        H879   1.083       .  S
C875        C876   1.412       .  A
C876        F877   1.357       .  S
C881        C882   1.403       .  A
C881        C886   1.401       .  A
C881        H888   1.083       .  S
C882        C883   1.409       .  A
C883        C884   1.399       .  A
C883        F890   1.357       .  S
C884        C885   1.404       .  A
C884        H889   1.083       .  S
C885        C886   1.413       .  A
C886        F887   1.358       .  S
C891        C892   1.407       .  A
C891        C896   1.402       .  A
C891        H898   1.083       .  S
C892        C893   1.410       .  A
C893        C894   1.394       .  A
C893        F900   1.358       .  S
C894        C895   1.405       .  A
C894        H899   1.083       .  S
C895        C896   1.409       .  A
C896        F897   1.357       .  S
Zr901       O902   2.441       .  S
Zr901       O903   2.435       .  S
Zr901       O904   2.428       .  S
Zr901       O907   2.409       .  S
Zr901       O909   2.375       .  S
Zr901       O910   2.381       .  S
Zr901       O911   2.405       .  S
Zr901       O912   2.398       .  S
O902        H958   0.990       .  S
O902        H966   0.990       .  S
O903        C923   1.285       .  A
O904        C925   1.284       .  A
O905       Zr915   2.438       .  S
O905        C924   1.286       .  A
O906       Zr914   2.437       .  S
O906        C925   1.286       .  A
O907        C924   1.281       .  A
O908       Zr916   2.438       .  S
O908        C923   1.285       .  A
O909       Zr914   2.397       .  S
O909       Zr916   2.372       .  S
O910       Zr915   2.379       .  S
O910       Zr916   2.376       .  S
O910        H945   0.966       .  S
O911       Zr914   2.396       .  S
O911       Zr931   2.402       .  S
O911        H948   0.966       .  S
O912       Zr915   2.395       .  S
O912       Zr931   2.394       .  S
Zr913       O938   2.447       .  S
Zr913       O932   2.441       .  S
Zr913       O940   2.419       .  S
Zr913       O928   2.419       .  S
Zr913       O919   2.403       .  S
Zr913       O920   2.408       .  S
Zr913       O921   2.375       .  S
Zr913       O922   2.378       .  S
Zr914       O933   2.436       .  S
Zr914       O926   2.435       .  S
Zr914       O927   2.439       .  S
Zr914       O920   2.396       .  S
Zr914       O921   2.392       .  S
Zr915       O917   2.436       .  S
Zr915       O939   2.436       .  S
Zr915       O941   2.443       .  S
Zr915       O919   2.392       .  S
Zr915       O922   2.375       .  S
Zr916       O942   2.435       .  S
Zr916       O943   2.435       .  S
Zr916       O918   2.437       .  S
Zr916       O919   2.399       .  S
Zr916       O920   2.404       .  S
O917        H954   0.990       .  S
O918        H949   0.990       .  S
O918        H963   0.990       .  S
O920        H946   0.966       .  S
O921       Zr931   2.371       .  S
O922       Zr931   2.380       .  S
O922        H947   0.965       .  S
C923       C1152   1.484       .  S
C924       C1162   1.469       .  S
C925       C1195   1.486       .  S
O926        H962   0.989       .  S
O927        C929   1.286       .  A
O928        C929   1.283       .  A
C929       C1175   1.487       .  S
O930       Zr931   2.436       .  S
O930        H959   0.990       .  S
Zr931       O934   2.436       .  S
Zr931       O935   2.436       .  S
Zr931       O936   2.431       .  S
O932        C937   1.287       .  A
O933        H950   0.990       .  S
O933        H965   0.990       .  S
O934        H951   0.990       .  S
O935        H955   0.990       .  S
O935        H964   0.990       .  S
O936        C937   1.284       .  A
C937       C1185   1.490       .  S
O938        H957   0.990       .  S
O938        H961   0.990       .  S
O939        H953   0.990       .  S
O939        H960   0.990       .  S
O940        C944   1.282       .  A
O941        C944   1.286       .  A
O942        H952   0.990       .  S
O943        H956   0.990       .  S
C944       C1142   1.473       .  S
C967        C977   1.466       .  S
C967        N972   1.356       .  A
N968        C969   1.363   1_554  A
C969        C983   1.467       .  S
C971        N972   1.354   1_456  A
C973       C1135   1.478       .  S
C973        N974   1.359       .  A
C973        N978   1.358       .  A
C975       C1155   1.480       .  S
C975        N976   1.361       .  A
C977        N978   1.359       .  A
C979       C1192   1.486       .  S
C979        N980   1.356       .  A
C979        N984   1.360       .  A
N980        C981   1.356   1_556  A
C981       C1125   1.478       .  S
C981        N982   1.361       .  A
N982        C983   1.360   1_554  A
C983        N984   1.361       .  A
C985       C1115   1.482       .  S
C985        N986   1.358       .  A
C985        N990   1.360       .  A
N986        C987   1.353   1_554  A
N988        C989   1.357       .  A
C989       C1165   1.477       .  S
Zr991       O992   2.440       .  S
Zr991       O993   2.445       .  S
Zr991       O994   2.416       .  S
Zr991       O997   2.405       .  S
Zr991       O999   2.372       .  S
Zr991      O1000   2.374       .  S
Zr991      O1001   2.409       .  S
Zr991      O1002   2.396       .  S
O992       H1048   0.990       .  S
O992       H1056   0.990       .  S
O993       C1013   1.287       .  A
O994       C1015   1.281       .  A
O995      Zr1005   2.444       .  S
O995       C1014   1.286       .  A
O996      Zr1004   2.446       .  S
O996       C1015   1.287       .  A
O997       C1014   1.280       .  A
O998      Zr1006   2.429       .  S
O998       C1013   1.283       .  A
O999      Zr1004   2.396       .  S
O999      Zr1006   2.376       .  S
O1000     Zr1005   2.372       .  S
O1000     Zr1006   2.382       .  S
O1000      H1035   0.964       .  S
O1001     Zr1004   2.399       .  S
O1001     Zr1021   2.409       .  S
O1001      H1038   0.966       .  S
O1002     Zr1005   2.387       .  S
O1002     Zr1021   2.394       .  S
Zr1003     O1028   2.445       .  S
Zr1003     O1022   2.430       .  S
Zr1003     O1030   2.422       .  S
Zr1003     O1018   2.423       .  S
Zr1003     O1009   2.396       .  S
Zr1003     O1010   2.404       .  S
Zr1003     O1011   2.376       .  S
Zr1003     O1012   2.379       .  S
Zr1004     O1023   2.439       .  S
Zr1004     O1016   2.436       .  S
Zr1004     O1017   2.439       .  S
Zr1004     O1010   2.398       .  S
Zr1004     O1011   2.395       .  S
Zr1005     O1007   2.436       .  S
Zr1005     O1029   2.439       .  S
Zr1005     O1031   2.426       .  S
Zr1005     O1009   2.399       .  S
Zr1005     O1012   2.376       .  S
Zr1006     O1032   2.434       .  S
Zr1006     O1033   2.435       .  S
Zr1006     O1008   2.440       .  S
Zr1006     O1009   2.395       .  S
Zr1006     O1010   2.406       .  S
O1007      H1044   0.990       .  S
O1008      H1039   0.990   1_565  S
O1008      H1053   0.990       .  S
O1010      H1036   0.967       .  S
O1011     Zr1021   2.369       .  S
O1012     Zr1021   2.377       .  S
O1012      H1037   0.965       .  S
C1013      C1092   1.481       .  S
C1014      C1085   1.471       .  S
C1015      C1105   1.488       .  S
O1016      H1052   0.990       .  S
O1017      C1019   1.286       .  A
O1018      C1019   1.284       .  A
C1019      C1132   1.490       .  S
O1020     Zr1021   2.439       .  S
O1020      H1049   0.991       .  S
Zr1021     O1024   2.436       .  S
Zr1021     O1025   2.438       .  S
Zr1021     O1026   2.439       .  S
O1022      C1027   1.285       .  A
O1023      H1040   0.990       .  S
O1023      H1055   0.990       .  S
O1024      H1041   0.990       .  S
O1025      H1045   0.990       .  S
O1025      H1054   0.990       .  S
O1026      C1027   1.286       .  A
C1027      C1122   1.482       .  S
O1028      H1047   0.990       .  S
O1028      H1051   0.990       .  S
O1029      H1043   0.990       .  S
O1029      H1050   0.990       .  S
O1030      C1034   1.283       .  A
O1031      C1034   1.284       .  A
O1032      H1042   0.990       .  S
O1033      H1046   0.990       .  S
C1034      C1112   1.462       .  S
C1057      C1067   1.466       .  S
C1057      N1062   1.358       .  A
C1059      C1077   1.468       .  S
C1061      N1062   1.356       .  A
C1063      C1172   1.477       .  S
C1063      N1064   1.356       .  A
C1063      N1068   1.357       .  A
C1065      C1095   1.486       .  S
C1065      N1066   1.364       .  A
C1067      N1068   1.359       .  A
C1069      C1145   1.480       .  S
C1069      N1070   1.360       .  A
C1069      N1074   1.359   1_655  A
N1070      C1071   1.357   1_655  A
N1072      C1073   1.359       .  A
C1073      C1082   1.477       .  S
C1075      C1102   1.476       .  S
C1075      N1076   1.356       .  A
C1075      N1080   1.356       .  A
N1076      C1077   1.358       .  A
C1077      N1078   1.364       .  A
N1078      C1079   1.364       .  A
C1079      C1182   1.477       .  S
C1079      N1080   1.356       .  A
C1081      C1082   1.406       .  A
C1081      C1086   1.399       .  A
C1081      H1088   1.083       .  S
C1082      C1083   1.407       .  A
C1083      C1084   1.396       .  A
C1083      F1090   1.357       .  S
C1084      C1085   1.404       .  A
C1084      H1089   1.084       .  S
C1085      C1086   1.404       .  A
C1086      F1087   1.358       .  S
C1091      C1092   1.400       .  A
C1091      C1096   1.396       .  A
C1091      H1098   1.083       .  S
C1092      C1093   1.412       .  A
C1093      C1094   1.404       .  A
C1093      F1100   1.358       .  S
C1094      C1095   1.405       .  A
C1095      C1096   1.412       .  A
C1096      F1097   1.357       .  S
C1101      C1102   1.400       .  A
C1101      C1106   1.392       .  A
C1101      H1108   1.084       .  S
C1102      C1103   1.406       .  A
C1103      C1104   1.402       .  A
C1103      F1110   1.357       .  S
C1104      C1105   1.408       .  A
C1104      H1109   1.083       .  S
C1105      C1106   1.413       .  A
C1106      F1107   1.356       .  S
C1111      C1112   1.398       .  A
C1111      C1116   1.394       .  A
C1111      H1118   1.084       .  S
C1112      C1113   1.402       .  A
C1113      C1114   1.399       .  A
C1113      F1120   1.358       .  S
C1114      C1115   1.408       .  A
C1114      H1119   1.083       .  S
C1115      C1116   1.411       .  A
C1116      F1117   1.357       .  S
C1121      C1122   1.405       .  A
C1121      C1126   1.398       .  A
C1121      H1128   1.083       .  S
C1122      C1123   1.410       .  A
C1123      C1124   1.399       .  A
C1123      F1130   1.357       .  S
C1124      C1125   1.403       .  A
C1124      H1129   1.083       .  S
C1125      C1126   1.407       .  A
C1126      F1127   1.358       .  S
C1131      C1132   1.409       .  A
C1131      C1136   1.396       .  A
C1131      H1138   1.083       .  S
C1132      C1133   1.412       .  A
C1133      C1134   1.401       .  A
C1133      F1140   1.357       .  S
C1134      C1135   1.404       .  A
C1134      H1139   1.083       .  S
C1135      C1136   1.404       .  A
C1136      F1137   1.358       .  S
C1141      C1142   1.402       .  A
C1141      C1146   1.398       .  A
C1141      H1148   1.084       .  S
C1142      C1143   1.406       .  A
C1143      C1144   1.399       .  A
C1143      F1150   1.358       .  S
C1144      C1145   1.406       .  A
C1144      H1149   1.083       .  S
C1145      C1146   1.408       .  A
C1151      C1152   1.406       .  A
C1151      C1156   1.401       .  A
C1151      H1158   1.083       .  S
C1152      C1153   1.410       .  A
C1153      C1154   1.399       .  A
C1153      F1160   1.357       .  S
C1154      C1155   1.403       .  A
C1155      C1156   1.408       .  A
C1156      F1157   1.358       .  S
C1161      C1162   1.401       .  A
C1161      C1166   1.397       .  A
C1161      H1168   1.084       .  S
C1162      C1163   1.406       .  A
C1163      C1164   1.396       .  A
C1163      F1170   1.358       .  S
C1164      C1165   1.404       .  A
C1164      H1169   1.083       .  S
C1165      C1166   1.410       .  A
C1166      F1167   1.357       .  S
C1171      C1172   1.405       .  A
C1171      C1176   1.403       .  A
C1171      H1178   1.083       .  S
C1172      C1173   1.404       .  A
C1173      C1174   1.392       .  A
C1173      F1180   1.358       .  S
C1174      C1175   1.408       .  A
C1174      H1179   1.083       .  S
C1175      C1176   1.411       .  A
C1176      F1177   1.357       .  S
C1181      C1182   1.401       .  A
C1181      C1186   1.401       .  A
C1181      H1188   1.083       .  S
C1182      C1183   1.406       .  A
C1183      C1184   1.399       .  A
C1183      F1190   1.358       .  S
C1184      C1185   1.407       .  A
C1184      H1189   1.083       .  S
C1185      C1186   1.414       .  A
C1186      F1187   1.358       .  S
C1191      C1192   1.406       .  A
C1191      C1196   1.402       .  A
C1191      H1198   1.083       .  S
C1192      C1193   1.410       .  A
C1193      C1194   1.396       .  A
C1193      F1200   1.358       .  S
C1194      C1195   1.405       .  A
C1194      H1199   1.083       .  S
C1195      C1196   1.409       .  A
C1196      F1197   1.357       .  S
