geometry optimzed in LAMMPS
_audit_creation_date              2020-12-01 
_audit_creation_method            'lammps2cif' 
_symmetry_space_group_name_H-M    'P1' 
_symmetry_Int_Tables_number       1 
_symmetry_cell_setting            triclinic 
loop_ 
_symmetry_equiv_pos_as_xyz 
  x,y,z 
_cell_length_a                    27.12543256 
_cell_length_b                    27.125966293224863 
_cell_length_c                    47.410294693226305 
_cell_angle_alpha                 89.99559990804298 
_cell_angle_beta                  90.00455616445953 
_cell_angle_gamma                 120.01339155014463 
loop_ 
_atom_site_label 
_atom_site_type_symbol 
_atom_site_fract_x 
_atom_site_fract_y 
_atom_site_fract_z 
_atom_site_charge 
C1          C  0.00109035  0.05358517  0.99941101     0.03100
C2          C  0.44929642  0.50163832  0.99938750    -0.13100
C3          C  0.44885408  0.44957326  0.49941429     0.00600
C4          C  0.50078450  0.44973523  0.49941475    -0.11600
C5          C  0.05286248  0.00137932  0.49944744     0.03100
C6          C  0.05271946  0.05315554  0.99941822    -0.11000
H7          H  0.40938559  0.50173805  0.99942827     0.08700
H8          H  0.50067510  0.40972049  0.49947343     0.06200
H9          H  0.09274128  0.09306991  0.99947203     0.06000
C10         C  0.22024191  0.33480550  0.33268293     0.03100
C11         C  0.16759181  0.28292126  0.33268217    -0.13100
C12         C  0.11491655  0.28207731  0.33268567     0.00600
C13         C  0.11568487  0.33471973  0.33268258    -0.11600
C14         C  0.16753052  0.38740445  0.33268118     0.03100
C15         C  0.21941228  0.38664638  0.33267808    -0.11000
H16         H  0.16761229  0.24298953  0.33271750     0.08700
H17         H  0.07572506  0.33468556  0.33271882     0.06200
H18         H  0.25934987  0.42660883  0.33271019     0.06000
C19         C  0.33350364  0.22011658  0.16088225     0.03100
C20         C  0.38565710  0.22025370  0.16087142    -0.13100
C21         C  0.38690504  0.16885906  0.16089609     0.00600
C22         C  0.33487804  0.11670474  0.16085500    -0.11600
C23         C  0.28223314  0.11544654  0.16086826     0.03100
C24         C  0.28210675  0.16746329  0.16084403    -0.11000
H25         H  0.42534787  0.26045189  0.16161411     0.08700
H26         H  0.33537799  0.07701784  0.16158562     0.06200
H27         H  0.24191100  0.16694688  0.16157005     0.06000
C28         C  0.30878404  0.32986459  0.02253126     0.80200
N29         N  0.29321860  0.29391809  0.00000808    -0.78100
C30         C  0.32853394  0.30903802  0.47725499     0.82600
N31         N  0.37908596  0.35908421  0.47750676    -0.78100
C32         C  0.39425589  0.39511397  0.99959961     0.82700
N33         N  0.35875140  0.38046623  0.02189493    -0.79800
C34         C  0.33761568  0.30586613  0.35301980     0.80200
N35         N  0.28617657  0.30396309  0.35227953    -0.78100
C36         C  0.27594276  0.33483296  0.33280051     0.82600
N37         N  0.31736871  0.36573751  0.31345646    -0.78100
C38         C  0.36696589  0.36390251  0.31298380     0.82700
N39         N  0.37709474  0.33488591  0.33306544    -0.79800
C40         C  0.30767940  0.34119753  0.14604480     0.80200
N41         N  0.30659982  0.29034680  0.14376738    -0.78100
C42         C  0.33288344  0.27474599  0.16332174     0.82600
N43         N  0.35801689  0.30948121  0.18571427    -0.78100
C44         C  0.35618049  0.35853833  0.18903566     0.82700
N45         N  0.33166291  0.37472595  0.16895587    -0.79800
C46         C  0.17253413  0.48100489  0.02254833     0.80200
N47         N  0.12194533  0.48037818  0.02191609    -0.78100
C48         C  0.10731203  0.00124616  0.99963830     0.82600
N49         N  0.14333120  0.02209183  0.47754074    -0.78100
C50         C  0.19335318  0.02155960  0.47728414     0.82700
N51         N  0.20846540  0.00136102  0.50003577    -0.79800
C52         C  0.00264173  0.14611172  0.18901183     0.80200
N53         N  0.45175224  0.14430330  0.18571040    -0.78100
C54         C  0.44215053  0.16946501  0.16332943     0.82600
N55         N  0.98401887  0.19573173  0.14376581    -0.78100
C56         C  0.03377867  0.19462609  0.14602251     0.82700
N57         N  0.04333260  0.17062436  0.16892238    -0.79800
C58         C  0.14374586  0.49966076  0.18901621     0.80200
N59         N  0.19284715  0.05059199  0.18568720    -0.78100
C60         C  0.22758990  0.06019638  0.16330048     0.82600
N61         N  0.21195772  0.51830690  0.14375782    -0.78100
C62         C  0.16108967  0.46853286  0.14602244     0.82700
N63         N  0.12754836  0.45896704  0.16892887    -0.79800
Zn64       Zn  0.23895976  0.39724303  0.07788644     1.49700
Zn65       Zn  0.15861067  0.26344078  0.07789646     1.49400
Zn66       Zn  0.16751929  0.33480730  0.11586342     1.49100
Zn67       Zn  0.10511643  0.34376322  0.07788101     1.49500
O68         O  0.16755953  0.33482171  0.07944268    -1.84200
O69         O  0.27162410  0.37100915  0.05060670    -0.74800
O70         O  0.11262994  0.21662676  0.11430636    -0.74600
O71         O  0.21937154  0.31172512  0.12752790    -0.74200
O72         O  0.23140599  0.27626260  0.05570647    -0.74800
O73         O  0.28573663  0.39805898  0.11430701    -0.74400
O74         O  0.09255029  0.28291933  0.12747784    -0.75000
O75         O  0.10424265  0.38970592  0.11428872    -0.74400
O76         O  0.09970706  0.23078029  0.05062306    -0.75200
O77         O  0.19059437  0.40975145  0.12750266    -0.74600
O78         O  0.04515460  0.27096245  0.05569810    -0.75000
O79         O  0.13136677  0.40267086  0.05060927    -0.74900
O80         O  0.22612209  0.45721361  0.05571073    -0.74700
C81         C  0.26801905  0.32395560  0.04423761     0.77100
C82         C  0.08144848  0.23205968  0.12801090     0.77600
C83         C  0.27025707  0.35145241  0.12803640     0.76500
C84         C  0.15084842  0.42086620  0.12801453     0.76900
C85         C  0.05625340  0.23436600  0.04424185     0.78000
C86         C  0.17842904  0.44613330  0.04424639     0.77100
C87         C  0.48090852  0.17388962  0.47723964     0.80200
N88         N  0.00106853  0.20918164  0.00000040    -0.79900
C89         C  0.02142189  0.19360993  0.02252999     0.82600
N90         N  0.02206649  0.14365966  0.02189449    -0.78100
C91         C  0.00124019  0.10817468  0.99959083     0.82700
N92         N  0.48040434  0.12334895  0.47748980    -0.79800
C93         C  0.13842182  0.00502027  0.31298422     0.80200
N94         N  0.13658397  0.45358851  0.31345852    -0.78100
C95         C  0.16750135  0.44307843  0.33279824     0.82600
N96         N  0.19836104  0.98417188  0.35227742    -0.78100
C97         C  0.19644170  0.03369655  0.35302899     0.82700
N98         N  0.16742279  0.04415693  0.33307579    -0.79800
C99         C  0.49729628  0.13530587  0.31301309     0.80200
N100        N  0.04872432  0.18492849  0.31347421    -0.78100
C101        C  0.05924074  0.22636267  0.33280804     0.82600
N102        N  0.51813975  0.21611513  0.35228866    -0.78100
C103        C  0.46860597  0.16466028  0.35304034     0.82700
N104        N  0.45814652  0.12516690  0.33309557    -0.79800
Zn105      Zn  0.39572485  0.23949897  0.42208459     1.49700
Zn106      Zn  0.26288996  0.15823808  0.42207803     1.49400
Zn107      Zn  0.33423635  0.16808730  0.38432072     1.49100
Zn108      Zn  0.34412431  0.10663917  0.42210013     1.49500
O109        O  0.33425117  0.16812137  0.42092526    -1.84200
O110        O  0.36959866  0.27167961  0.44941839    -0.74800
O111        O  0.21774493  0.11084368  0.38556500    -0.74600
O112        O  0.30720750  0.21760963  0.37265140    -0.74200
O113        O  0.27485885  0.23102300  0.44423836    -0.74800
O114        O  0.39346820  0.28460038  0.38556384    -0.74400
O115        O  0.28468677  0.09151117  0.37268401    -0.75000
O116        O  0.39146346  0.10883190  0.38558588    -0.74400
O117        O  0.23071203  0.09993816  0.44941191    -0.75200
O118        O  0.41079406  0.19509726  0.37266552    -0.74600
O119        O  0.27135022  0.04584695  0.44427595    -0.75000
O120        O  0.40245885  0.13280457  0.44941697    -0.74900
O121        O  0.45655739  0.22754586  0.44423049    -0.74700
C122        C  0.32246239  0.26784686  0.45574382     0.77100
C123        C  0.23369625  0.07996403  0.37189632     0.77600
C124        C  0.34663536  0.26861695  0.37188186     0.76500
C125        C  0.42233711  0.15565404  0.37189854     0.76900
C126        C  0.23453552  0.05664285  0.45576251     0.78000
C127        C  0.44577824  0.17994712  0.45573381     0.77100
Zn128      Zn  0.43809863  0.00923243  0.24448113     1.49700
Zn129      Zn  0.00091630  0.00142933  0.28129244     1.49400
Zn130      Zn  0.49308522  0.43084409  0.24447718     1.49100
Zn131      Zn  0.07151640  0.06427507  0.24446683     1.49500
O132        O  0.00091720  0.00146703  0.24466977    -1.84200
O133        O  0.44076250  0.05694491  0.28110726    -0.74800
O134        O  0.42435041  0.45189543  0.29299733    -0.74600
O135        O  0.43510531  0.39523525  0.21698117    -0.74200
O136        O  0.52792203  0.07794964  0.29302399    -0.74800
O137        O  0.37954915  0.43426534  0.22294096    -0.74400
O138        O  0.44534067  0.38574226  0.28109079    -0.75000
O139        O  0.10707508  0.54188225  0.21696816    -0.74400
O140        O  0.05042530  0.97439856  0.29299252    -0.75200
O141        O  0.06800879  0.44727319  0.22291743    -0.74600
O142        O  0.11659593  0.06156817  0.28108586    -0.75000
O143        O  0.05504826  0.12275633  0.22289994    -0.74900
O144        O  0.96042533  0.06720504  0.21697802    -0.74700
C145        C  0.48803498  0.08873786  0.29427576     0.77100
C146        C  0.41354248  0.40121283  0.29424809     0.77600
C147        C  0.39102425  0.39806322  0.21115917     0.76500
C148        C  0.10422364  0.49496619  0.21113900     0.76900
C149        C  0.10111434  0.01428612  0.29424451     0.78000
C150        C  0.00734363  0.11127738  0.21113555     0.77100
C151        C  0.00109034  0.05358511  0.49941108     0.03100
C152        C  0.44929652  0.50163841  0.49938759    -0.13100
C153        C  0.44885409  0.44957319  0.99941427     0.00600
C154        C  0.50078451  0.44973520  0.99941468    -0.11600
C155        C  0.05286254  0.00137949  0.99944746     0.03100
C156        C  0.05271942  0.05315539  0.49941821    -0.11000
H157        H  0.40938554  0.50173819  0.49942845     0.08700
H158        H  0.50067518  0.40972049  0.99947331     0.06200
H159        H  0.09274132  0.09306975  0.49947199     0.06000
C160        C  0.22024197  0.33480534  0.83268289     0.03100
C161        C  0.16759189  0.28292111  0.83268206    -0.13100
C162        C  0.11491664  0.28207718  0.83268553     0.00600
C163        C  0.11568498  0.33471961  0.83268259    -0.11600
C164        C  0.16753059  0.38740435  0.83268115     0.03100
C165        C  0.21941238  0.38664627  0.83267801    -0.11000
H166        H  0.16761237  0.24298938  0.83271737     0.08700
H167        H  0.07572516  0.33468541  0.83271891     0.06200
H168        H  0.25934995  0.42660863  0.83271005     0.06000
C169        C  0.33350354  0.22011650  0.66088225     0.03100
C170        C  0.38565699  0.22025360  0.66087149    -0.13100
C171        C  0.38690501  0.16885902  0.66089613     0.00600
C172        C  0.33487803  0.11670458  0.66085494    -0.11600
C173        C  0.28223312  0.11544649  0.66086826     0.03100
C174        C  0.28210671  0.16746319  0.66084396    -0.11000
H175        H  0.42534776  0.26045189  0.66161422     0.08700
H176        H  0.33537799  0.07701787  0.66158551     0.06200
H177        H  0.24191090  0.16694680  0.66156993     0.06000
C178        C  0.30878417  0.32986445  0.52253129     0.80200
N179        N  0.29321877  0.29391797  0.50000812    -0.78100
C180        C  0.32853382  0.30903807  0.97725497     0.82600
N181        N  0.37908594  0.35908413  0.97750676    -0.78100
C182        C  0.39425592  0.39511399  0.49959962     0.82700
N183        N  0.35875152  0.38046613  0.52189499    -0.79800
C184        C  0.33761577  0.30586618  0.85301976     0.80200
N185        N  0.28617666  0.30396305  0.85227950    -0.78100
C186        C  0.27594276  0.33483278  0.83280044     0.82600
N187        N  0.31736868  0.36573728  0.81345638    -0.78100
C188        C  0.36696591  0.36390247  0.81298375     0.82700
N189        N  0.37709483  0.33488591  0.83306540    -0.79800
C190        C  0.30767956  0.34119766  0.64604476     0.80200
N191        N  0.30659971  0.29034679  0.64376739    -0.78100
C192        C  0.33288333  0.27474594  0.66332174     0.82600
N193        N  0.35801679  0.30948115  0.68571428    -0.78100
C194        C  0.35618039  0.35853827  0.68903568     0.82700
N195        N  0.33166310  0.37472606  0.66895584    -0.79800
C196        C  0.17253406  0.48100477  0.52254827     0.80200
N197        N  0.12194519  0.48037797  0.52191604    -0.78100
C198        C  0.10731192  0.00124589  0.49963829     0.82600
N199        N  0.14333128  0.02209214  0.97754075    -0.78100
C200        C  0.19335322  0.02155977  0.97728412     0.82700
N201        N  0.20846542  0.00136115  0.00003574    -0.79800
C202        C  0.00264159  0.14611161  0.68901187     0.80200
N203        N  0.45175224  0.14430322  0.68571045    -0.78100
C204        C  0.44215055  0.16946502  0.66332951     0.82600
N205        N  0.98401884  0.19573167  0.64376586    -0.78100
C206        C  0.03377859  0.19462599  0.64602256     0.82700
N207        N  0.04333251  0.17062425  0.66892243    -0.79800
C208        C  0.14374594  0.49966075  0.68901629     0.80200
N209        N  0.19284717  0.05059203  0.68568722    -0.78100
C210        C  0.22758992  0.06019638  0.66330051     0.82600
N211        N  0.21195771  0.51830697  0.64375786    -0.78100
C212        C  0.16108974  0.46853293  0.64602250     0.82700
N213        N  0.12754846  0.45896700  0.66892896    -0.79800
Zn214      Zn  0.23895961  0.39724296  0.57788646     1.49700
Zn215      Zn  0.15861052  0.26344068  0.57789649     1.49400
Zn216      Zn  0.16751913  0.33480727  0.61586348     1.49100
Zn217      Zn  0.10511660  0.34376339  0.57788102     1.49500
O218        O  0.16755940  0.33482161  0.57944275    -1.84200
O219        O  0.27162416  0.37100913  0.55060662    -0.74800
O220        O  0.11262994  0.21662675  0.61430646    -0.74600
O221        O  0.21937166  0.31172542  0.62752798    -0.74200
O222        O  0.23140581  0.27626254  0.55570635    -0.74800
O223        O  0.28573681  0.39805920  0.61430701    -0.74400
O224        O  0.09255010  0.28291922  0.62747788    -0.75000
O225        O  0.10424286  0.38970614  0.61428875    -0.74400
O226        O  0.09970701  0.23078006  0.55062310    -0.75200
O227        O  0.19059453  0.40975163  0.62750270    -0.74600
O228        O  0.04515480  0.27096250  0.55569806    -0.75000
O229        O  0.13136672  0.40267080  0.55060917    -0.74900
O230        O  0.22612196  0.45721375  0.55571078    -0.74700
C231        C  0.26801906  0.32395556  0.54423755     0.77100
C232        C  0.08144840  0.23205960  0.62801096     0.77600
C233        C  0.27025724  0.35145264  0.62803642     0.76500
C234        C  0.15084859  0.42086638  0.62801457     0.76900
C235        C  0.05625345  0.23436590  0.54424186     0.78000
C236        C  0.17842894  0.44613329  0.54424634     0.77100
C237        C  0.48090859  0.17388967  0.97723958     0.80200
N238        N  0.00106834  0.20918154  0.50000051    -0.79900
C239        C  0.02142189  0.19360986  0.52253002     0.82600
N240        N  0.02206666  0.14365968  0.52189444    -0.78100
C241        C  0.00124026  0.10817467  0.49959081     0.82700
N242        N  0.48040427  0.12334893  0.97748981    -0.79800
C243        C  0.13842179  0.00502037  0.81298428     0.80200
N244        N  0.13658399  0.45358848  0.81345846    -0.78100
C245        C  0.16750139  0.44307838  0.83279816     0.82600
N246        N  0.19836101  0.98417178  0.85227745    -0.78100
C247        C  0.19644175  0.03369652  0.85302902     0.82700
N248        N  0.16742287  0.04415699  0.83307585    -0.79800
C249        C  0.49729628  0.13530574  0.81301312     0.80200
N250        N  0.04872417  0.18492841  0.81347410    -0.78100
C251        C  0.05924078  0.22636260  0.83280796     0.82600
N252        N  0.51813980  0.21611523  0.85228856    -0.78100
C253        C  0.46860605  0.16466037  0.85304033     0.82700
N254        N  0.45814663  0.12516686  0.83309565    -0.79800
Zn255      Zn  0.39572480  0.23949918  0.92208465     1.49700
Zn256      Zn  0.26288990  0.15823827  0.92207801     1.49400
Zn257      Zn  0.33423633  0.16808750  0.88432077     1.49100
Zn258      Zn  0.34412436  0.10663909  0.92210014     1.49500
O259        O  0.33425116  0.16812153  0.92092532    -1.84200
O260        O  0.36959846  0.27167949  0.94941848    -0.74800
O261        O  0.21774493  0.11084370  0.88556494    -0.74600
O262        O  0.30720751  0.21760982  0.87265144    -0.74200
O263        O  0.27485871  0.23102323  0.94423826    -0.74800
O264        O  0.39346823  0.28460060  0.88556389    -0.74400
O265        O  0.28468679  0.09151114  0.87268410    -0.75000
O266        O  0.39146331  0.10883179  0.88558577    -0.74400
O267        O  0.23071207  0.09993820  0.94941179    -0.75200
O268        O  0.41079415  0.19509734  0.87266562    -0.74600
O269        O  0.27135019  0.04584687  0.94427594    -0.75000
O270        O  0.40245904  0.13280443  0.94941684    -0.74900
O271        O  0.45655721  0.22754582  0.94423051    -0.74700
C272        C  0.32246222  0.26784687  0.95574383     0.77100
C273        C  0.23369628  0.07996396  0.87189635     0.77600
C274        C  0.34663546  0.26861711  0.87188185     0.76500
C275        C  0.42233717  0.15565409  0.87189857     0.76900
C276        C  0.23453550  0.05664288  0.95576244     0.78000
C277        C  0.44577831  0.17994706  0.95573371     0.77100
Zn278      Zn  0.43809876  0.00923255  0.74448103     1.49700
Zn279      Zn  0.00091647  0.00142946  0.78129229     1.49400
Zn280      Zn  0.49308508  0.43084406  0.74447721     1.49100
Zn281      Zn  0.07151663  0.06427529  0.74446684     1.49500
O282        O  0.00091733  0.00146715  0.74466964    -1.84200
O283        O  0.44076227  0.05694477  0.78110726    -0.74800
O284        O  0.42435051  0.45189559  0.79299742    -0.74600
O285        O  0.43510513  0.39523510  0.71698123    -0.74200
O286        O  0.52792188  0.07794960  0.79302383    -0.74800
O287        O  0.37954901  0.43426524  0.72294103    -0.74400
O288        O  0.44534073  0.38574242  0.78109082    -0.75000
O289        O  0.10707531  0.54188233  0.71696825    -0.74400
O290        O  0.05042537  0.97439863  0.79299240    -0.75200
O291        O  0.06800875  0.44727320  0.72291745    -0.74600
O292        O  0.11659594  0.06156839  0.78108595    -0.75000
O293        O  0.05504812  0.12275643  0.72290003    -0.74900
O294        O  0.96042520  0.06720502  0.71697803    -0.74700
C295        C  0.48803481  0.08873775  0.79427572     0.77100
C296        C  0.41354259  0.40121297  0.79424815     0.77600
C297        C  0.39102410  0.39806308  0.71115924     0.76500
C298        C  0.10422371  0.49496619  0.71113906     0.76900
C299        C  0.10111435  0.01428628  0.79424455     0.78000
C300        C  0.00734351  0.11127737  0.71113559     0.77100
C301        C  0.00107990  0.55357387  0.99940355     0.03100
C302        C  0.44930551  0.00165143  0.99939027    -0.13100
C303        C  0.44885991  0.94958503  0.49942022     0.00600
C304        C  0.50078861  0.94974349  0.49942765    -0.11600
C305        C  0.05285680  0.50137260  0.49943018     0.03100
C306        C  0.05271052  0.55314708  0.99940316    -0.11000
H307        H  0.40939568  0.00175353  0.99942527     0.08700
H308        H  0.50067662  0.90972764  0.49948742     0.06200
H309        H  0.09273119  0.59306258  0.99945441     0.06000
C310        C  0.22026110  0.83481018  0.33266523     0.03100
C311        C  0.16761101  0.78292491  0.33266606    -0.13100
C312        C  0.11493498  0.78208032  0.33267336     0.00600
C313        C  0.11570249  0.83472168  0.33267175    -0.11600
C314        C  0.16754663  0.88740612  0.33266798     0.03100
C315        C  0.21942959  0.88665021  0.33266169    -0.11000
H316        H  0.16763212  0.74299344  0.33270089     0.08700
H317        H  0.07574224  0.83468699  0.33271136     0.06200
H318        H  0.25936636  0.92661351  0.33269333     0.06000
C319        C  0.33348542  0.72009432  0.16089929     0.03100
C320        C  0.38563856  0.72023084  0.16087782    -0.13100
C321        C  0.38688575  0.66883600  0.16089989     0.00600
C322        C  0.33485801  0.61668217  0.16086647    -0.11600
C323        C  0.28221352  0.61542484  0.16089051     0.03100
C324        C  0.28208774  0.66744160  0.16086927    -0.11000
H325        H  0.42533022  0.76042900  0.16161430     0.08700
H326        H  0.33535759  0.57699506  0.16159413     0.06200
H327        H  0.24189272  0.66692597  0.16160144     0.06000
C328        C  0.30878764  0.82987382  0.02253162     0.80200
N329        N  0.29322287  0.79393256  0.00000621    -0.78100
C330        C  0.32853834  0.80905774  0.47725289     0.82600
N331        N  0.37909036  0.85910391  0.47750683    -0.78100
C332        C  0.39425994  0.89512822  0.99960199     0.82700
N333        N  0.35875519  0.88047537  0.02189747    -0.79800
C334        C  0.33764581  0.80589330  0.35301112     0.80200
N335        N  0.28620420  0.80398472  0.35226812    -0.78100
C336        C  0.27596385  0.83484044  0.33278353     0.82600
N337        N  0.31738682  0.86573722  0.31343671    -0.78100
C338        C  0.36698703  0.86390722  0.31296678     0.82700
N339        N  0.37712167  0.83490414  0.33305388    -0.79800
C340        C  0.30766088  0.84117135  0.14605542     0.80200
N341        N  0.30657321  0.79031622  0.14378356    -0.78100
C342        C  0.33286841  0.77472543  0.16333591     0.82600
N343        N  0.35802268  0.80947615  0.18572123    -0.78100
C344        C  0.35619423  0.85853871  0.18903741     0.82700
N345        N  0.33166529  0.87471600  0.16895911    -0.79800
C346        C  0.17253413  0.98099982  0.02256379     0.80200
N347        N  0.12194807  0.98037928  0.02193350    -0.78100
C348        C  0.10730803  0.50124258  0.99962038     0.82600
N349        N  0.14333015  0.52209456  0.47752407    -0.78100
C350        C  0.19335577  0.52156916  0.47726919     0.82700
N351        N  0.20846855  0.50137193  0.50002148    -0.79800
C352        C  0.00262185  0.64608157  0.18900691     0.80200
N353        N  0.45173351  0.64427516  0.18570710    -0.78100
C354        C  0.44213119  0.66944022  0.16332814     0.82600
N355        N  0.98399935  0.69571018  0.14376433    -0.78100
C356        C  0.03375885  0.69460224  0.14601905     0.82700
N357        N  0.04331232  0.67059598  0.16891737    -0.79800
C358        C  0.14376922  0.99969550  0.18900095     0.80200
N359        N  0.19282636  0.55055825  0.18570814    -0.78100
C360        C  0.22757102  0.56017383  0.16332088     0.82600
N361        N  0.21197663  0.01831778  0.14374330    -0.78100
C362        C  0.16110805  0.96854435  0.14601324     0.82700
N363        N  0.12757038  0.95899128  0.16891950    -0.79800
Zn364      Zn  0.23895487  0.89722954  0.07789714     1.49700
Zn365      Zn  0.15860819  0.76342536  0.07789685     1.49400
Zn366      Zn  0.16750775  0.83478444  0.11586798     1.49100
Zn367      Zn  0.10511611  0.84374644  0.07788377     1.49500
O368        O  0.16755765  0.83480518  0.07944667    -1.84200
O369        O  0.27162843  0.87100942  0.05061469    -0.74800
O370        O  0.11261647  0.71660760  0.11430529    -0.74600
O371        O  0.21935516  0.81169665  0.12753399    -0.74200
O372        O  0.23140837  0.77626030  0.05570505    -0.74800
O373        O  0.28572113  0.89803539  0.11431938    -0.74400
O374        O  0.09253218  0.78289776  0.12747580    -0.75000
O375        O  0.10425332  0.88970906  0.11428537    -0.74400
O376        O  0.09970652  0.73076575  0.05062157    -0.75200
O377        O  0.19059154  0.90973107  0.12751047    -0.74600
O378        O  0.04515201  0.77094439  0.05570232    -0.75000
O379        O  0.13136247  0.90264750  0.05061078    -0.74900
O380        O  0.22611293  0.95720420  0.05572879    -0.74700
C381        C  0.26802294  0.82395785  0.04424013     0.77100
C382        C  0.08143052  0.73203797  0.12800808     0.77600
C383        C  0.27023988  0.85142595  0.12804633     0.76500
C384        C  0.15085813  0.92086437  0.12801286     0.76900
C385        C  0.05625075  0.73435011  0.04424330     0.78000
C386        C  0.17842413  0.94611979  0.04425778     0.77100
C387        C  0.48090048  0.67388546  0.47724112     0.80200
N388        N  0.00106328  0.70917350  0.00000324    -0.79900
C389        C  0.02141652  0.69359672  0.02253096     0.82600
N390        N  0.02205859  0.64364516  0.02189232    -0.78100
C391        C  0.00122793  0.60816292  0.99958768     0.82700
N392        N  0.48039225  0.62334255  0.47748844    -0.79800
C393        C  0.13840620  0.50501624  0.31299085     0.80200
N394        N  0.13660526  0.95359497  0.31344645    -0.78100
C395        C  0.16751293  0.94307705  0.33278877     0.82600
N396        N  0.19836703  0.48418564  0.35227895    -0.78100
C397        C  0.19645424  0.53371435  0.35302558     0.82700
N398        N  0.16742376  0.54416508  0.33307495    -0.79800
C399        C  0.49729871  0.63531276  0.31300735     0.80200
N400        N  0.04873169  0.68493016  0.31346640    -0.78100
C401        C  0.05925747  0.72636790  0.33279962     0.82600
N402        N  0.51816061  0.71612921  0.35228132    -0.78100
C403        C  0.46862247  0.66467873  0.35303503     0.82700
N404        N  0.45815422  0.62518190  0.33309119    -0.79800
Zn405      Zn  0.39574071  0.73952501  0.42208464     1.49700
Zn406      Zn  0.26290442  0.65826413  0.42207071     1.49400
Zn407      Zn  0.33426161  0.66811701  0.38431363     1.49100
Zn408      Zn  0.34413388  0.60666226  0.42209155     1.49500
O409        O  0.33426602  0.66814798  0.42091877    -1.84200
O410        O  0.36960794  0.77170204  0.44941767    -0.74800
O411        O  0.21776423  0.61086943  0.38555710    -0.74600
O412        O  0.30723788  0.71764000  0.37264363    -0.74200
O413        O  0.27486947  0.73104745  0.44423236    -0.74800
O414        O  0.39349361  0.78463203  0.38556236    -0.74400
O415        O  0.28470807  0.59154169  0.37267251    -0.75000
O416        O  0.39147744  0.60885649  0.38557938    -0.74400
O417        O  0.23072095  0.59995938  0.44940359    -0.75200
O418        O  0.41082288  0.69512824  0.37266294    -0.74600
O419        O  0.27135471  0.54586545  0.44426143    -0.75000
O420        O  0.40245999  0.63281499  0.44941188    -0.74900
O421        O  0.45656211  0.72755810  0.44423525    -0.74700
C422        C  0.32247061  0.76786934  0.45574067     0.77100
C423        C  0.23371563  0.57999013  0.37188799     0.77600
C424        C  0.34666466  0.76864768  0.37187626     0.76500
C425        C  0.42235806  0.65567974  0.37189426     0.76900
C426        C  0.23454089  0.55666002  0.45575001     0.78000
C427        C  0.44577788  0.67995405  0.45573442     0.77100
Zn428      Zn  0.43807429  0.50921742  0.24448504     1.49700
Zn429      Zn  0.00089480  0.50141622  0.28130194     1.49400
Zn430      Zn  0.49311840  0.93086958  0.24446465     1.49100
Zn431      Zn  0.07148677  0.56424871  0.24447074     1.49500
O432        O  0.00088659  0.50144208  0.24467883    -1.84200
O433        O  0.44075247  0.55694666  0.28110659    -0.74800
O434        O  0.42436827  0.95190055  0.29298105    -0.74600
O435        O  0.43514086  0.89525759  0.21696826    -0.74200
O436        O  0.52790861  0.57794058  0.29302495    -0.74800
O437        O  0.37957648  0.93427580  0.22293806    -0.74400
O438        O  0.44536867  0.88575479  0.28107559    -0.75000
O439        O  0.10710898  0.04191903  0.21696011    -0.74400
O440        O  0.05040455  0.47438796  0.29300340    -0.75200
O441        O  0.06804127  0.94730801  0.22290416    -0.74600
O442        O  0.11657271  0.56155420  0.28108980    -0.75000
O443        O  0.05502774  0.62272866  0.22289677    -0.74900
O444        O  0.96040451  0.56718173  0.21697738    -0.74700
C445        C  0.48802787  0.58873808  0.29427336     0.77100
C446        C  0.41356421  0.90121942  0.29423138     0.77600
C447        C  0.39105203  0.89807621  0.21115348     0.76500
C448        C  0.10425477  0.99500292  0.21112706     0.76900
C449        C  0.10109369  0.51427641  0.29425213     0.78000
C450        C  0.00732386  0.61124975  0.21113191     0.77100
C451        C  0.00108001  0.55357398  0.49940354     0.03100
C452        C  0.44930541  0.00165136  0.49939040    -0.13100
C453        C  0.44885997  0.94958510  0.99942014     0.00600
C454        C  0.50078870  0.94974362  0.99942768    -0.11600
C455        C  0.05285681  0.50137261  0.99943016     0.03100
C456        C  0.05271057  0.55314710  0.49940312    -0.11000
H457        H  0.40939558  0.00175348  0.49942539     0.08700
H458        H  0.50067670  0.90972769  0.99948751     0.06200
H459        H  0.09273136  0.59306265  0.49945437     0.06000
C460        C  0.22026111  0.83481012  0.83266527     0.03100
C461        C  0.16761099  0.78292480  0.83266608    -0.13100
C462        C  0.11493498  0.78208026  0.83267331     0.00600
C463        C  0.11570235  0.83472160  0.83267174    -0.11600
C464        C  0.16754656  0.88740606  0.83266793     0.03100
C465        C  0.21942956  0.88665015  0.83266171    -0.11000
H466        H  0.16763208  0.74299343  0.83270096     0.08700
H467        H  0.07574221  0.83468684  0.83271144     0.06200
H468        H  0.25936630  0.92661336  0.83269340     0.06000
C469        C  0.33348538  0.72009429  0.66089932     0.03100
C470        C  0.38563858  0.72023087  0.66087785    -0.13100
C471        C  0.38688569  0.66883597  0.66089985     0.00600
C472        C  0.33485794  0.61668216  0.66086647    -0.11600
C473        C  0.28221344  0.61542485  0.66089046     0.03100
C474        C  0.28208776  0.66744161  0.66086915    -0.11000
H475        H  0.42533004  0.76042889  0.66161438     0.08700
H476        H  0.33535746  0.57699501  0.66159425     0.06200
H477        H  0.24189256  0.66692599  0.66160124     0.06000
C478        C  0.30878769  0.82987385  0.52253164     0.80200
N479        N  0.29322291  0.79393252  0.50000624    -0.78100
C480        C  0.32853838  0.80905781  0.97725288     0.82600
N481        N  0.37909035  0.85910398  0.97750680    -0.78100
C482        C  0.39425998  0.89512814  0.49960204     0.82700
N483        N  0.35875524  0.88047532  0.52189750    -0.79800
C484        C  0.33764582  0.80589317  0.85301114     0.80200
N485        N  0.28620423  0.80398461  0.85226813    -0.78100
C486        C  0.27596392  0.83484040  0.83278358     0.82600
N487        N  0.31738702  0.86573730  0.81343680    -0.78100
C488        C  0.36698720  0.86390724  0.81296683     0.82700
N489        N  0.37712174  0.83490403  0.83305391    -0.79800
C490        C  0.30766080  0.84117130  0.64605546     0.80200
N491        N  0.30657319  0.79031619  0.64378358    -0.78100
C492        C  0.33286854  0.77472548  0.66333590     0.82600
N493        N  0.35802297  0.80947630  0.68572115    -0.78100
C494        C  0.35619426  0.85853870  0.68903741     0.82700
N495        N  0.33166506  0.87471587  0.66895917    -0.79800
C496        C  0.17253409  0.98099969  0.52256382     0.80200
N497        N  0.12194803  0.98037911  0.52193353    -0.78100
C498        C  0.10730794  0.50124244  0.49962036     0.82600
N499        N  0.14333023  0.52209459  0.97752407    -0.78100
C500        C  0.19335577  0.52156911  0.97726920     0.82700
N501        N  0.20846860  0.50137196  0.00002151    -0.79800
C502        C  0.00262184  0.64608164  0.68900694     0.80200
N503        N  0.45173349  0.64427520  0.68570714    -0.78100
C504        C  0.44213120  0.66944026  0.66332817     0.82600
N505        N  0.98399942  0.69571023  0.64376435    -0.78100
C506        C  0.03375894  0.69460239  0.64601910     0.82700
N507        N  0.04331231  0.67059601  0.66891741    -0.79800
C508        C  0.14376927  0.99969550  0.68900096     0.80200
N509        N  0.19282631  0.55055830  0.68570816    -0.78100
C510        C  0.22757096  0.56017390  0.66332088     0.82600
N511        N  0.21197665  0.01831785  0.64374333    -0.78100
C512        C  0.16110812  0.96854441  0.64601326     0.82700
N513        N  0.12757044  0.95899127  0.66891954    -0.79800
Zn514      Zn  0.23895491  0.89722948  0.57789714     1.49700
Zn515      Zn  0.15860828  0.76342528  0.57789688     1.49400
Zn516      Zn  0.16750800  0.83478467  0.61586801     1.49100
Zn517      Zn  0.10511595  0.84374635  0.57788384     1.49500
O518        O  0.16755762  0.83480521  0.57944673    -1.84200
O519        O  0.27162838  0.87100955  0.55061455    -0.74800
O520        O  0.11261656  0.71660751  0.61430537    -0.74600
O521        O  0.21935513  0.81169666  0.62753405    -0.74200
O522        O  0.23140863  0.77626049  0.55570512    -0.74800
O523        O  0.28572113  0.89803530  0.61431933    -0.74400
O524        O  0.09253239  0.78289784  0.62747571    -0.75000
O525        O  0.10425340  0.88970920  0.61428539    -0.74400
O526        O  0.09970659  0.73076565  0.55062149    -0.75200
O527        O  0.19059176  0.90973137  0.62751038    -0.74600
O528        O  0.04515200  0.77094422  0.55570238    -0.75000
O529        O  0.13136255  0.90264736  0.55061080    -0.74900
O530        O  0.22611298  0.95720431  0.55572891    -0.74700
C531        C  0.26802300  0.82395797  0.54424008     0.77100
C532        C  0.08143065  0.73203800  0.62800809     0.77600
C533        C  0.27023984  0.85142591  0.62804634     0.76500
C534        C  0.15085825  0.92086454  0.62801284     0.76900
C535        C  0.05625079  0.73435007  0.54424327     0.78000
C536        C  0.17842418  0.94611974  0.54425783     0.77100
C537        C  0.48090034  0.67388543  0.97724119     0.80200
N538        N  0.00106322  0.70917356  0.50000321    -0.79900
C539        C  0.02141649  0.69359675  0.52253092     0.82600
N540        N  0.02205855  0.64364522  0.52189229    -0.78100
C541        C  0.00122789  0.60816293  0.49958767     0.82700
N542        N  0.48039215  0.62334254  0.97748846    -0.79800
C543        C  0.13840624  0.50501625  0.81299080     0.80200
N544        N  0.13660517  0.95359503  0.81344650    -0.78100
C545        C  0.16751280  0.94307701  0.83278879     0.82600
N546        N  0.19836704  0.48418558  0.85227888    -0.78100
C547        C  0.19645431  0.53371433  0.85302551     0.82700
N548        N  0.16742389  0.54416513  0.83307487    -0.79800
C549        C  0.49729875  0.63531278  0.81300729     0.80200
N550        N  0.04873160  0.68493021  0.81346630    -0.78100
C551        C  0.05925753  0.72636784  0.83279961     0.82600
N552        N  0.51816084  0.71612919  0.85228134    -0.78100
C553        C  0.46862265  0.66467873  0.85303506     0.82700
N554        N  0.45815434  0.62518194  0.83309118    -0.79800
Zn555      Zn  0.39574061  0.73952492  0.92208470     1.49700
Zn556      Zn  0.26290440  0.65826429  0.92207076     1.49400
Zn557      Zn  0.33426171  0.66811694  0.88431366     1.49100
Zn558      Zn  0.34413385  0.60666246  0.92209160     1.49500
O559        O  0.33426602  0.66814809  0.92091884    -1.84200
O560        O  0.36960809  0.77170203  0.94941776    -0.74800
O561        O  0.21776430  0.61086928  0.88555712    -0.74600
O562        O  0.30723774  0.71763985  0.87264368    -0.74200
O563        O  0.27486965  0.73104765  0.94423239    -0.74800
O564        O  0.39349352  0.78463182  0.88556236    -0.74400
O565        O  0.28470816  0.59154161  0.87267239    -0.75000
O566        O  0.39147745  0.60885670  0.88557941    -0.74400
O567        O  0.23072091  0.59995930  0.94940361    -0.75200
O568        O  0.41082318  0.69512851  0.87266296    -0.74600
O569        O  0.27135478  0.54586545  0.94426148    -0.75000
O570        O  0.40245981  0.63281496  0.94941197    -0.74900
O571        O  0.45656207  0.72755801  0.94423525    -0.74700
C572        C  0.32247077  0.76786943  0.95574071     0.77100
C573        C  0.23371571  0.57999005  0.87188793     0.77600
C574        C  0.34666459  0.76864751  0.87187628     0.76500
C575        C  0.42235820  0.65567990  0.87189426     0.76900
C576        C  0.23454091  0.55665996  0.95575003     0.78000
C577        C  0.44577773  0.67995399  0.95573450     0.77100
Zn578      Zn  0.43807420  0.50921756  0.74448504     1.49700
Zn579      Zn  0.00089465  0.50141615  0.78130187     1.49400
Zn580      Zn  0.49311860  0.93086975  0.74446468     1.49100
Zn581      Zn  0.07148698  0.56424893  0.74447078     1.49500
O582        O  0.00088671  0.50144223  0.74467882    -1.84200
O583        O  0.44075244  0.55694672  0.78110655    -0.74800
O584        O  0.42436842  0.95190054  0.79298096    -0.74600
O585        O  0.43514078  0.89525757  0.71696831    -0.74200
O586        O  0.52790847  0.57794037  0.79302498    -0.74800
O587        O  0.37957634  0.93427574  0.72293807    -0.74400
O588        O  0.44536877  0.88575474  0.78107553    -0.75000
O589        O  0.10710911  0.04191914  0.71696006    -0.74400
O590        O  0.05040452  0.47438797  0.79300344    -0.75200
O591        O  0.06804150  0.94730813  0.72290424    -0.74600
O592        O  0.11657265  0.56155426  0.78108987    -0.75000
O593        O  0.05502775  0.62272887  0.72289686    -0.74900
O594        O  0.96040462  0.56718159  0.71697727    -0.74700
C595        C  0.48802782  0.58873802  0.79427334     0.77100
C596        C  0.41356441  0.90121942  0.79423137     0.77600
C597        C  0.39105192  0.89807616  0.71115350     0.76500
C598        C  0.10425490  0.99500300  0.71112707     0.76900
C599        C  0.10109365  0.51427644  0.79425217     0.78000
C600        C  0.00732389  0.61124978  0.71113191     0.77100
C601        C  0.50109036  0.05358517  0.99941101     0.03100
C602        C  0.94929648  0.50163830  0.99938750    -0.13100
C603        C  0.94885412  0.44957327  0.49941430     0.00600
C604        C  0.00078452  0.44973522  0.49941475    -0.11600
C605        C  0.55286244  0.00137934  0.49944741     0.03100
C606        C  0.55271949  0.05315556  0.99941822    -0.11000
H607        H  0.90938547  0.50173803  0.99942827     0.08700
H608        H  0.00067512  0.40972045  0.49947343     0.06200
H609        H  0.59274129  0.09306994  0.99947203     0.06000
C610        C  0.72024199  0.33480549  0.33268291     0.03100
C611        C  0.66759191  0.28292125  0.33268217    -0.13100
C612        C  0.61491664  0.28207729  0.33268566     0.00600
C613        C  0.61568499  0.33471973  0.33268258    -0.11600
C614        C  0.66753061  0.38740447  0.33268114     0.03100
C615        C  0.71941241  0.38664642  0.33267796    -0.11000
H616        H  0.66761240  0.24298953  0.33271753     0.08700
H617        H  0.57572518  0.33468554  0.33271884     0.06200
H618        H  0.75934997  0.42660878  0.33270999     0.06000
C619        C  0.83350356  0.22011656  0.16088225     0.03100
C620        C  0.88565700  0.22025367  0.16087142    -0.13100
C621        C  0.88690499  0.16885907  0.16089610     0.00600
C622        C  0.83487801  0.11670470  0.16085500    -0.11600
C623        C  0.78223309  0.11544654  0.16086827     0.03100
C624        C  0.78210669  0.16746326  0.16084403    -0.11000
H625        H  0.92534776  0.26045194  0.16161410     0.08700
H626        H  0.83537800  0.07701792  0.16158562     0.06200
H627        H  0.74191087  0.16694685  0.16157005     0.06000
C628        C  0.80878413  0.32986455  0.02253129     0.80200
N629        N  0.79321869  0.29391803  0.00000811    -0.78100
C630        C  0.82853395  0.30903800  0.47725501     0.82600
N631        N  0.87908599  0.35908419  0.47750677    -0.78100
C632        C  0.89425593  0.39511397  0.99959961     0.82700
N633        N  0.85875149  0.38046618  0.02189496    -0.79800
C634        C  0.83761570  0.30586613  0.35301978     0.80200
N635        N  0.78617663  0.30396310  0.35227952    -0.78100
C636        C  0.77594281  0.33483297  0.33280051     0.82600
N637        N  0.81736876  0.36573751  0.31345647    -0.78100
C638        C  0.86696591  0.36390254  0.31298380     0.82700
N639        N  0.87709480  0.33488592  0.33306543    -0.79800
C640        C  0.80767938  0.34119751  0.14604479     0.80200
N641        N  0.80659972  0.29034674  0.14376741    -0.78100
C642        C  0.83288342  0.27474599  0.16332174     0.82600
N643        N  0.85801693  0.30948123  0.18571426    -0.78100
C644        C  0.85618044  0.35853832  0.18903565     0.82700
N645        N  0.83166295  0.37472595  0.16895585    -0.79800
C646        C  0.67253406  0.48100489  0.02254833     0.80200
N647        N  0.62194524  0.48037817  0.02191609    -0.78100
C648        C  0.60731208  0.00124614  0.99963830     0.82600
N649        N  0.64333114  0.02209184  0.47754073    -0.78100
C650        C  0.69335313  0.02155959  0.47728415     0.82700
N651        N  0.70846532  0.00136102  0.50003579    -0.79800
C652        C  0.50264164  0.14611172  0.18901184     0.80200
N653        N  0.95175229  0.14430330  0.18571041    -0.78100
C654        C  0.94215054  0.16946502  0.16332945     0.82600
N655        N  0.48401889  0.19573173  0.14376579    -0.78100
C656        C  0.53377864  0.19462607  0.14602250     0.82700
N657        N  0.54333258  0.17062435  0.16892240    -0.79800
C658        C  0.64374588  0.49966072  0.18901622     0.80200
N659        N  0.69284706  0.05059203  0.18568717    -0.78100
C660        C  0.72758986  0.06019638  0.16330048     0.82600
N661        N  0.71195771  0.51830690  0.14375782    -0.78100
C662        C  0.66108964  0.46853287  0.14602243     0.82700
N663        N  0.62754838  0.45896699  0.16892889    -0.79800
Zn664      Zn  0.73895962  0.39724303  0.07788644     1.49700
Zn665      Zn  0.65861074  0.26344080  0.07789646     1.49400
Zn666      Zn  0.66751912  0.33480730  0.11586342     1.49100
Zn667      Zn  0.60511650  0.34376322  0.07788100     1.49500
O668        O  0.66755944  0.33482168  0.07944268    -1.84200
O669        O  0.77162419  0.37100919  0.05060671    -0.74800
O670        O  0.61263003  0.21662683  0.11430639    -0.74600
O671        O  0.71937148  0.31172519  0.12752792    -0.74200
O672        O  0.73140593  0.27626262  0.05570643    -0.74800
O673        O  0.78573666  0.39805897  0.11430698    -0.74400
O674        O  0.59255014  0.28291928  0.12747782    -0.75000
O675        O  0.60424269  0.38970590  0.11428871    -0.74400
O676        O  0.59970712  0.23078025  0.05062304    -0.75200
O677        O  0.69059440  0.40975149  0.12750267    -0.74600
O678        O  0.54515473  0.27096247  0.05569811    -0.75000
O679        O  0.63136674  0.40267080  0.05060926    -0.74900
O680        O  0.72612201  0.45721368  0.05571074    -0.74700
C681        C  0.76801910  0.32395562  0.04423762     0.77100
C682        C  0.58144848  0.23205967  0.12801091     0.77600
C683        C  0.77025706  0.35145241  0.12803639     0.76500
C684        C  0.65084843  0.42086621  0.12801453     0.76900
C685        C  0.55625347  0.23436600  0.04424185     0.78000
C686        C  0.67842894  0.44613330  0.04424639     0.77100
C687        C  0.98090860  0.17388968  0.47723961     0.80200
N688        N  0.50106843  0.20918162  0.00000044    -0.79900
C689        C  0.52142185  0.19360993  0.02253001     0.82600
N690        N  0.52206650  0.14365968  0.02189448    -0.78100
C691        C  0.50124010  0.10817465  0.99959084     0.82700
N692        N  0.98040444  0.12334901  0.47748977    -0.79800
C693        C  0.63842178  0.00502030  0.31298423     0.80200
N694        N  0.63658405  0.45358854  0.31345847    -0.78100
C695        C  0.66750137  0.44307843  0.33279821     0.82600
N696        N  0.69836102  0.98417186  0.35227740    -0.78100
C697        C  0.69644171  0.03369656  0.35302899     0.82700
N698        N  0.66742283  0.04415698  0.33307579    -0.79800
C699        C  0.99729632  0.13530586  0.31301311     0.80200
N700        N  0.54872427  0.18492851  0.31347417    -0.78100
C701        C  0.55924079  0.22636265  0.33280805     0.82600
N702        N  0.01813966  0.21611515  0.35228862    -0.78100
C703        C  0.96860593  0.16466027  0.35304033     0.82700
N704        N  0.95814654  0.12516687  0.33309558    -0.79800
Zn705      Zn  0.89572464  0.23949895  0.42208460     1.49700
Zn706      Zn  0.76288978  0.15823809  0.42207804     1.49400
Zn707      Zn  0.83423622  0.16808732  0.38432071     1.49100
Zn708      Zn  0.84412436  0.10663917  0.42210015     1.49500
O709        O  0.83425100  0.16812135  0.42092527    -1.84200
O710        O  0.86959847  0.27167956  0.44941836    -0.74800
O711        O  0.71774499  0.11084367  0.38556499    -0.74600
O712        O  0.80720736  0.21760965  0.37265139    -0.74200
O713        O  0.77485865  0.23102304  0.44423837    -0.74800
O714        O  0.89346808  0.28460034  0.38556386    -0.74400
O715        O  0.78468682  0.09151114  0.37268400    -0.75000
O716        O  0.89146335  0.10883187  0.38558585    -0.74400
O717        O  0.73071202  0.09993819  0.44941193    -0.75200
O718        O  0.91079408  0.19509730  0.37266556    -0.74600
O719        O  0.77135013  0.04584691  0.44427592    -0.75000
O720        O  0.90245895  0.13280453  0.44941695    -0.74900
O721        O  0.95655724  0.22754586  0.44423051    -0.74700
C722        C  0.82246225  0.26784686  0.45574382     0.77100
C723        C  0.73369632  0.07996401  0.37189631     0.77600
C724        C  0.84663531  0.26861694  0.37188184     0.76500
C725        C  0.92233707  0.15565403  0.37189854     0.76900
C726        C  0.73453548  0.05664286  0.45576251     0.78000
C727        C  0.94577827  0.17994713  0.45573379     0.77100
Zn728      Zn  0.93809872  0.00923243  0.24448113     1.49700
Zn729      Zn  0.50091638  0.00142931  0.28129245     1.49400
Zn730      Zn  0.99308507  0.43084410  0.24447717     1.49100
Zn731      Zn  0.57151649  0.06427509  0.24446682     1.49500
O732        O  0.50091724  0.00146706  0.24466977    -1.84200
O733        O  0.94076249  0.05694491  0.28110725    -0.74800
O734        O  0.92435044  0.45189546  0.29299736    -0.74600
O735        O  0.93510519  0.39523528  0.21698117    -0.74200
O736        O  0.02792201  0.07794963  0.29302399    -0.74800
O737        O  0.87954897  0.43426532  0.22294095    -0.74400
O738        O  0.94534055  0.38574221  0.28109076    -0.75000
O739        O  0.60707523  0.54188228  0.21696819    -0.74400
O740        O  0.55042533  0.97439850  0.29299250    -0.75200
O741        O  0.56800873  0.44727317  0.22291740    -0.74600
O742        O  0.61659585  0.06156821  0.28108589    -0.75000
O743        O  0.55504810  0.12275631  0.22289996    -0.74900
O744        O  0.46042516  0.06720502  0.21697802    -0.74700
C745        C  0.98803498  0.08873787  0.29427576     0.77100
C746        C  0.91354247  0.40121284  0.29424810     0.77600
C747        C  0.89102413  0.39806320  0.21115918     0.76500
C748        C  0.60422367  0.49496618  0.21113900     0.76900
C749        C  0.60111433  0.01428615  0.29424452     0.78000
C750        C  0.50734349  0.11127737  0.21113556     0.77100
C751        C  0.50109030  0.05358510  0.49941107     0.03100
C752        C  0.94929657  0.50163842  0.49938759    -0.13100
C753        C  0.94885410  0.44957319  0.99941426     0.00600
C754        C  0.00078455  0.44973520  0.99941468    -0.11600
C755        C  0.55286257  0.00137948  0.99944748     0.03100
C756        C  0.55271933  0.05315536  0.49941821    -0.11000
H757        H  0.90938562  0.50173821  0.49942845     0.08700
H758        H  0.00067520  0.40972050  0.99947331     0.06200
H759        H  0.59274128  0.09306980  0.49947199     0.06000
C760        C  0.72024188  0.33480537  0.83268288     0.03100
C761        C  0.66759185  0.28292112  0.83268206    -0.13100
C762        C  0.61491660  0.28207717  0.83268554     0.00600
C763        C  0.61568494  0.33471957  0.83268259    -0.11600
C764        C  0.66753047  0.38740434  0.83268115     0.03100
C765        C  0.71941225  0.38664627  0.83267801    -0.11000
H766        H  0.66761236  0.24298939  0.83271737     0.08700
H767        H  0.57572496  0.33468532  0.83271891     0.06200
H768        H  0.75934982  0.42660873  0.83271005     0.06000
C769        C  0.83350356  0.22011651  0.66088225     0.03100
C770        C  0.88565703  0.22025363  0.66087149    -0.13100
C771        C  0.88690502  0.16885902  0.66089612     0.00600
C772        C  0.83487806  0.11670459  0.66085494    -0.11600
C773        C  0.78223315  0.11544650  0.66086826     0.03100
C774        C  0.78210672  0.16746320  0.66084396    -0.11000
H775        H  0.92534778  0.26045184  0.66161422     0.08700
H776        H  0.83537802  0.07701788  0.66158551     0.06200
H777        H  0.74191096  0.16694680  0.66156992     0.06000
C778        C  0.80878413  0.32986449  0.52253128     0.80200
N779        N  0.79321878  0.29391797  0.50000813    -0.78100
C780        C  0.82853387  0.30903806  0.97725497     0.82600
N781        N  0.87908592  0.35908419  0.97750673    -0.78100
C782        C  0.89425592  0.39511401  0.49959962     0.82700
N783        N  0.85875152  0.38046616  0.52189498    -0.79800
C784        C  0.83761569  0.30586617  0.85301977     0.80200
N785        N  0.78617655  0.30396304  0.85227950    -0.78100
C786        C  0.77594268  0.33483279  0.83280044     0.82600
N787        N  0.81736859  0.36573728  0.81345637    -0.78100
C788        C  0.86696584  0.36390245  0.81298375     0.82700
N789        N  0.87709472  0.33488590  0.83306541    -0.79800
C790        C  0.80767953  0.34119767  0.64604478     0.80200
N791        N  0.80659974  0.29034682  0.64376739    -0.78100
C792        C  0.83288332  0.27474594  0.66332174     0.82600
N793        N  0.85801684  0.30948119  0.68571426    -0.78100
C794        C  0.85618042  0.35853828  0.68903568     0.82700
N795        N  0.83166298  0.37472601  0.66895588    -0.79800
C796        C  0.67253408  0.48100476  0.52254828     0.80200
N797        N  0.62194522  0.48037796  0.52191604    -0.78100
C798        C  0.60731187  0.00124590  0.49963828     0.82600
N799        N  0.64333132  0.02209212  0.97754075    -0.78100
C800        C  0.69335327  0.02155977  0.97728412     0.82700
N801        N  0.70846551  0.00136116  0.00003572    -0.79800
C802        C  0.50264169  0.14611168  0.68901187     0.80200
N803        N  0.95175220  0.14430323  0.68571046    -0.78100
C804        C  0.94215053  0.16946503  0.66332951     0.82600
N805        N  0.48401883  0.19573166  0.64376585    -0.78100
C806        C  0.53377865  0.19462607  0.64602257     0.82700
N807        N  0.54333264  0.17062447  0.66892247    -0.79800
C808        C  0.64374586  0.49966078  0.68901626     0.80200
N809        N  0.69284723  0.05059202  0.68568723    -0.78100
C810        C  0.72758993  0.06019639  0.66330050     0.82600
N811        N  0.71195766  0.51830697  0.64375785    -0.78100
C812        C  0.66108971  0.46853292  0.64602250     0.82700
N813        N  0.62754836  0.45896703  0.66892892    -0.79800
Zn814      Zn  0.73895968  0.39724297  0.57788646     1.49700
Zn815      Zn  0.65861062  0.26344066  0.57789650     1.49400
Zn816      Zn  0.66751925  0.33480726  0.61586348     1.49100
Zn817      Zn  0.60511672  0.34376340  0.57788102     1.49500
O818        O  0.66755953  0.33482161  0.57944275    -1.84200
O819        O  0.77162401  0.37100909  0.55060659    -0.74800
O820        O  0.61262987  0.21662670  0.61430642    -0.74600
O821        O  0.71937168  0.31172535  0.62752796    -0.74200
O822        O  0.73140588  0.27626254  0.55570636    -0.74800
O823        O  0.78573675  0.39805922  0.61430704    -0.74400
O824        O  0.59255023  0.28291928  0.62747790    -0.75000
O825        O  0.60424287  0.38970614  0.61428875    -0.74400
O826        O  0.59970709  0.23078007  0.55062310    -0.75200
O827        O  0.69059454  0.40975162  0.62750269    -0.74600
O828        O  0.54515487  0.27096250  0.55569806    -0.75000
O829        O  0.63136683  0.40267079  0.55060917    -0.74900
O830        O  0.72612205  0.45721376  0.55571077    -0.74700
C831        C  0.76801899  0.32395556  0.54423752     0.77100
C832        C  0.58144843  0.23205964  0.62801096     0.77600
C833        C  0.77025724  0.35145263  0.62803641     0.76500
C834        C  0.65084858  0.42086636  0.62801458     0.76900
C835        C  0.55625351  0.23436590  0.54424187     0.78000
C836        C  0.67842904  0.44613330  0.54424634     0.77100
C837        C  0.98090857  0.17388961  0.97723958     0.80200
N838        N  0.50106840  0.20918156  0.50000051    -0.79900
C839        C  0.52142199  0.19360986  0.52253001     0.82600
N840        N  0.52206677  0.14365971  0.52189442    -0.78100
C841        C  0.50124029  0.10817468  0.49959080     0.82700
N842        N  0.98040433  0.12334892  0.97748980    -0.79800
C843        C  0.63842184  0.00502037  0.81298426     0.80200
N844        N  0.63658385  0.45358845  0.81345848    -0.78100
C845        C  0.66750126  0.44307836  0.83279818     0.82600
N846        N  0.69836095  0.98417178  0.85227747    -0.78100
C847        C  0.69644167  0.03369651  0.85302904     0.82700
N848        N  0.66742277  0.04415696  0.83307586    -0.79800
C849        C  0.99729622  0.13530574  0.81301311     0.80200
N850        N  0.54872425  0.18492839  0.81347413    -0.78100
C851        C  0.55924081  0.22636259  0.83280797     0.82600
N852        N  0.01813984  0.21611519  0.85228861    -0.78100
C853        C  0.96860602  0.16466037  0.85304034     0.82700
N854        N  0.95814654  0.12516690  0.83309562    -0.79800
Zn855      Zn  0.89572493  0.23949919  0.92208465     1.49700
Zn856      Zn  0.76289000  0.15823827  0.92207801     1.49400
Zn857      Zn  0.83423638  0.16808747  0.88432078     1.49100
Zn858      Zn  0.84412424  0.10663910  0.92210013     1.49500
O859        O  0.83425125  0.16812156  0.92092532    -1.84200
O860        O  0.86959860  0.27167951  0.94941849    -0.74800
O861        O  0.71774491  0.11084373  0.88556495    -0.74600
O862        O  0.80720762  0.21760981  0.87265144    -0.74200
O863        O  0.77485885  0.23102322  0.94423825    -0.74800
O864        O  0.89346832  0.28460063  0.88556387    -0.74400
O865        O  0.78468673  0.09151113  0.87268409    -0.75000
O866        O  0.89146334  0.10883183  0.88558580    -0.74400
O867        O  0.73071200  0.09993815  0.94941178    -0.75200
O868        O  0.91079405  0.19509730  0.87266559    -0.74600
O869        O  0.77135023  0.04584693  0.94427596    -0.75000
O870        O  0.90245891  0.13280446  0.94941686    -0.74900
O871        O  0.95655734  0.22754582  0.94423049    -0.74700
C872        C  0.82246234  0.26784687  0.95574383     0.77100
C873        C  0.73369621  0.07996397  0.87189635     0.77600
C874        C  0.84663549  0.26861712  0.87188186     0.76500
C875        C  0.92233714  0.15565410  0.87189857     0.76900
C876        C  0.73453550  0.05664288  0.95576244     0.78000
C877        C  0.94577829  0.17994703  0.95573372     0.77100
Zn878      Zn  0.93809866  0.00923255  0.74448103     1.49700
Zn879      Zn  0.50091637  0.00142947  0.78129229     1.49400
Zn880      Zn  0.99308516  0.43084407  0.74447721     1.49100
Zn881      Zn  0.57151647  0.06427527  0.74446685     1.49500
O882        O  0.50091722  0.00146713  0.74466965    -1.84200
O883        O  0.94076237  0.05694474  0.78110726    -0.74800
O884        O  0.92435040  0.45189554  0.79299739    -0.74600
O885        O  0.93510518  0.39523509  0.71698122    -0.74200
O886        O  0.02792201  0.07794966  0.79302384    -0.74800
O887        O  0.87954908  0.43426526  0.72294103    -0.74400
O888        O  0.94534081  0.38574248  0.78109085    -0.75000
O889        O  0.60707530  0.54188235  0.71696827    -0.74400
O890        O  0.55042543  0.97439865  0.79299238    -0.75200
O891        O  0.56800875  0.44727321  0.72291746    -0.74600
O892        O  0.61659601  0.06156838  0.78108593    -0.75000
O893        O  0.55504827  0.12275650  0.72290002    -0.74900
O894        O  0.46042539  0.06720502  0.71697802    -0.74700
C895        C  0.98803487  0.08873773  0.79427574     0.77100
C896        C  0.91354257  0.40121297  0.79424816     0.77600
C897        C  0.89102414  0.39806309  0.71115924     0.76500
C898        C  0.60422368  0.49496621  0.71113906     0.76900
C899        C  0.60111443  0.01428627  0.79424451     0.78000
C900        C  0.50734365  0.11127740  0.71113558     0.77100
C901        C  0.50107991  0.55357389  0.99940354     0.03100
C902        C  0.94930548  0.00165144  0.99939025    -0.13100
C903        C  0.94885991  0.94958503  0.49942021     0.00600
C904        C  0.00078861  0.94974350  0.49942765    -0.11600
C905        C  0.55285679  0.50137260  0.49943017     0.03100
C906        C  0.55271052  0.55314709  0.99940316    -0.11000
H907        H  0.90939567  0.00175356  0.99942521     0.08700
H908        H  0.00067658  0.90972755  0.49948742     0.06200
H909        H  0.59273124  0.59306258  0.99945441     0.06000
C910        C  0.72026110  0.83481020  0.33266522     0.03100
C911        C  0.66761100  0.78292494  0.33266605    -0.13100
C912        C  0.61493495  0.78208031  0.33267336     0.00600
C913        C  0.61570235  0.83472167  0.33267175    -0.11600
C914        C  0.66754655  0.88740610  0.33266797     0.03100
C915        C  0.71942957  0.88665024  0.33266169    -0.11000
H916        H  0.66763213  0.74299346  0.33270090     0.08700
H917        H  0.57574223  0.83468693  0.33271136     0.06200
H918        H  0.75936628  0.92661346  0.33269333     0.06000
C919        C  0.83348536  0.72009430  0.16089929     0.03100
C920        C  0.88563850  0.72023083  0.16087783    -0.13100
C921        C  0.88688572  0.66883601  0.16089993     0.00600
C922        C  0.83485796  0.61668216  0.16086648    -0.11600
C923        C  0.78221346  0.61542484  0.16089051     0.03100
C924        C  0.78208767  0.66744159  0.16086927    -0.11000
H925        H  0.92533013  0.76042902  0.16161430     0.08700
H926        H  0.83535754  0.57699504  0.16159414     0.06200
H927        H  0.74189263  0.66692597  0.16160143     0.06000
C928        C  0.80878768  0.82987385  0.02253161     0.80200
N929        N  0.79322292  0.79393257  0.00000622    -0.78100
C930        C  0.82853833  0.80905773  0.47725289     0.82600
N931        N  0.87909028  0.85910395  0.47750681    -0.78100
C932        C  0.89426000  0.89512820  0.99960200     0.82700
N933        N  0.85875524  0.88047537  0.02189746    -0.79800
C934        C  0.83764583  0.80589331  0.35301113     0.80200
N935        N  0.78620424  0.80398474  0.35226811    -0.78100
C936        C  0.77596389  0.83484046  0.33278352     0.82600
N937        N  0.81738693  0.86573722  0.31343670    -0.78100
C938        C  0.86698713  0.86390720  0.31296679     0.82700
N939        N  0.87712173  0.83490411  0.33305390    -0.79800
C940        C  0.80766082  0.84117136  0.14605545     0.80200
N941        N  0.80657324  0.79031628  0.14378355    -0.78100
C942        C  0.83286844  0.77472546  0.16333589     0.82600
N943        N  0.85802278  0.80947620  0.18572120    -0.78100
C944        C  0.85619432  0.85853873  0.18903740     0.82700
N945        N  0.83166518  0.87471595  0.16895916    -0.79800
C946        C  0.67253424  0.98099983  0.02256378     0.80200
N947        N  0.62194816  0.98037927  0.02193350    -0.78100
C948        C  0.60730797  0.50124256  0.99962038     0.82600
N949        N  0.64333019  0.52209455  0.47752407    -0.78100
C950        C  0.69335579  0.52156915  0.47726919     0.82700
N951        N  0.70846860  0.50137194  0.50002149    -0.79800
C952        C  0.50262178  0.64608158  0.18900690     0.80200
N953        N  0.95173355  0.64427518  0.18570712    -0.78100
C954        C  0.94213122  0.66944027  0.16332820     0.82600
N955        N  0.48399936  0.69571019  0.14376430    -0.78100
C956        C  0.53375884  0.69460227  0.14601904     0.82700
N957        N  0.54331226  0.67059598  0.16891736    -0.79800
C958        C  0.64376917  0.99969551  0.18900092     0.80200
N959        N  0.69282627  0.55055829  0.18570810    -0.78100
C960        C  0.72757095  0.56017385  0.16332086     0.82600
N961        N  0.71197658  0.01831781  0.14374329    -0.78100
C962        C  0.66110805  0.96854434  0.14601324     0.82700
N963        N  0.62757040  0.95899122  0.16891952    -0.79800
Zn964      Zn  0.73895492  0.89722951  0.07789713     1.49700
Zn965      Zn  0.65860830  0.76342537  0.07789686     1.49400
Zn966      Zn  0.66750784  0.83478444  0.11586797     1.49100
Zn967      Zn  0.60511597  0.84374645  0.07788377     1.49500
O968        O  0.66755755  0.83480519  0.07944667    -1.84200
O969        O  0.77162853  0.87100941  0.05061471    -0.74800
O970        O  0.61261655  0.71660758  0.11430531    -0.74600
O971        O  0.71935513  0.81169657  0.12753397    -0.74200
O972        O  0.73140849  0.77626030  0.05570505    -0.74800
O973        O  0.78572100  0.89803540  0.11431942    -0.74400
O974        O  0.59253231  0.78289777  0.12747580    -0.75000
O975        O  0.60425331  0.88970907  0.11428537    -0.74400
O976        O  0.59970662  0.73076572  0.05062156    -0.75200
O977        O  0.69059155  0.90973106  0.12751048    -0.74600
O978        O  0.54515210  0.77094438  0.05570232    -0.75000
O979        O  0.63136259  0.90264752  0.05061077    -0.74900
O980        O  0.72611307  0.95720420  0.05572879    -0.74700
C981        C  0.76802303  0.82395786  0.04424012     0.77100
C982        C  0.58143058  0.73203796  0.12800807     0.77600
C983        C  0.77023980  0.85142594  0.12804634     0.76500
C984        C  0.65085814  0.92086437  0.12801285     0.76900
C985        C  0.55625085  0.73435012  0.04424329     0.78000
C986        C  0.67842426  0.94611979  0.04425777     0.77100
C987        C  0.98090038  0.67388542  0.47724115     0.80200
N988        N  0.50106317  0.70917350  0.00000326    -0.79900
C989        C  0.52141652  0.69359674  0.02253095     0.82600
N990        N  0.52205847  0.64364513  0.02189232    -0.78100
C991        C  0.50122781  0.60816288  0.99958768     0.82700
N992        N  0.98039210  0.62334249  0.47748847    -0.79800
C993        C  0.63840624  0.50501626  0.31299081     0.80200
N994        N  0.63660510  0.95359494  0.31344650    -0.78100
C995        C  0.66751280  0.94307702  0.33278877     0.82600
N996        N  0.69836695  0.48418558  0.35227896    -0.78100
C997        C  0.69645424  0.53371434  0.35302556     0.82700
N998        N  0.66742384  0.54416512  0.33307490    -0.79800
C999        C  0.99729880  0.63531275  0.31300736     0.80200
N1000       N  0.54873160  0.68493019  0.31346638    -0.78100
C1001       C  0.55925744  0.72636788  0.33279964     0.82600
N1002       N  0.01816059  0.71612924  0.35228129    -0.78100
C1003       C  0.96862252  0.66467869  0.35303505     0.82700
N1004       N  0.95815430  0.62518187  0.33309120    -0.79800
Zn1005     Zn  0.89574083  0.73952501  0.42208463     1.49700
Zn1006     Zn  0.76290453  0.65826412  0.42207071     1.49400
Zn1007     Zn  0.83426171  0.66811704  0.38431361     1.49100
Zn1008     Zn  0.84413377  0.60666227  0.42209155     1.49500
O1009       O  0.83426610  0.66814799  0.42091878    -1.84200
O1010       O  0.86960807  0.77170207  0.44941768    -0.74800
O1011       O  0.71776439  0.61086941  0.38555710    -0.74600
O1012       O  0.80723778  0.71764002  0.37264366    -0.74200
O1013       O  0.77486960  0.73104744  0.44423236    -0.74800
O1014       O  0.89349359  0.78463196  0.38556234    -0.74400
O1015       O  0.78470820  0.59154175  0.37267235    -0.75000
O1016       O  0.89147729  0.60885645  0.38557936    -0.74400
O1017       O  0.73072089  0.59995933  0.44940358    -0.75200
O1018       O  0.91082302  0.69512830  0.37266294    -0.74600
O1019       O  0.77135476  0.54586551  0.44426145    -0.75000
O1020       O  0.90246001  0.63281499  0.44941184    -0.74900
O1021       O  0.95656222  0.72755812  0.44423524    -0.74700
C1022       C  0.82247070  0.76786933  0.45574068     0.77100
C1023       C  0.73371574  0.57999013  0.37188794     0.77600
C1024       C  0.84666461  0.76864768  0.37187628     0.76500
C1025       C  0.92235807  0.65567972  0.37189426     0.76900
C1026       C  0.73454091  0.55666002  0.45575002     0.78000
C1027       C  0.94577790  0.67995405  0.45573441     0.77100
Zn1028     Zn  0.93807408  0.50921743  0.24448504     1.49700
Zn1029     Zn  0.50089487  0.50141621  0.28130194     1.49400
Zn1030     Zn  0.99311849  0.93086959  0.24446466     1.49100
Zn1031     Zn  0.57148686  0.56424873  0.24447072     1.49500
O1032       O  0.50088675  0.50144208  0.24467883    -1.84200
O1033       O  0.94075242  0.55694670  0.28110661    -0.74800
O1034       O  0.92436834  0.95190052  0.29298106    -0.74600
O1035       O  0.93514097  0.89525758  0.21696825    -0.74200
O1036       O  0.02790857  0.57794054  0.29302492    -0.74800
O1037       O  0.87957662  0.93427581  0.22293806    -0.74400
O1038       O  0.94536880  0.88575478  0.28107559    -0.75000
O1039       O  0.60710907  0.04191903  0.21696013    -0.74400
O1040       O  0.55040455  0.47438789  0.29300339    -0.75200
O1041       O  0.56804131  0.94730799  0.22290418    -0.74600
O1042       O  0.61657256  0.56155422  0.28108984    -0.75000
O1043       O  0.55502773  0.62272874  0.22289679    -0.74900
O1044       O  0.46040456  0.56718164  0.21697736    -0.74700
C1045       C  0.98802787  0.58873809  0.29427336     0.77100
C1046       C  0.91356434  0.90121940  0.29423139     0.77600
C1047       C  0.89105214  0.89807622  0.21115347     0.76500
C1048       C  0.60425479  0.99500290  0.21112707     0.76900
C1049       C  0.60109365  0.51427642  0.29425213     0.78000
C1050       C  0.50732387  0.61124976  0.21113191     0.77100
C1051       C  0.50107997  0.55357396  0.49940356     0.03100
C1052       C  0.94930546  0.00165138  0.49939040    -0.13100
C1053       C  0.94885996  0.94958511  0.99942014     0.00600
C1054       C  0.00078870  0.94974361  0.99942768    -0.11600
C1055       C  0.55285678  0.50137260  0.99943016     0.03100
C1056       C  0.55271057  0.55314711  0.49940312    -0.11000
H1057       H  0.90939563  0.00175349  0.49942539     0.08700
H1058       H  0.00067672  0.90972778  0.99948752     0.06200
H1059       H  0.59273126  0.59306257  0.49945437     0.06000
C1060       C  0.72026111  0.83481012  0.83266528     0.03100
C1061       C  0.66761102  0.78292478  0.83266608    -0.13100
C1062       C  0.61493501  0.78208025  0.83267331     0.00600
C1063       C  0.61570243  0.83472159  0.83267174    -0.11600
C1064       C  0.66754657  0.88740606  0.83266794     0.03100
C1065       C  0.71942953  0.88665012  0.83266171    -0.11000
H1066       H  0.66763211  0.74299341  0.83270096     0.08700
H1067       H  0.57574218  0.83468682  0.83271143     0.06200
H1068       H  0.75936631  0.92661344  0.83269340     0.06000
C1069       C  0.83348542  0.72009429  0.66089931     0.03100
C1070       C  0.88563861  0.72023087  0.66087786    -0.13100
C1071       C  0.88688573  0.66883596  0.66089986     0.00600
C1072       C  0.83485799  0.61668216  0.66086647    -0.11600
C1073       C  0.78221349  0.61542484  0.66089046     0.03100
C1074       C  0.78208774  0.66744161  0.66086915    -0.11000
H1075       H  0.92533009  0.76042886  0.66161438     0.08700
H1076       H  0.83535754  0.57699502  0.66159425     0.06200
H1077       H  0.74189270  0.66692598  0.66160124     0.06000
C1078       C  0.80878765  0.82987380  0.52253165     0.80200
N1079       N  0.79322283  0.79393252  0.50000623    -0.78100
C1080       C  0.82853840  0.80905780  0.97725289     0.82600
N1081       N  0.87909041  0.85910394  0.97750681    -0.78100
C1082       C  0.89425992  0.89512817  0.49960203     0.82700
N1083       N  0.85875525  0.88047525  0.52189753    -0.79800
C1084       C  0.83764579  0.80589317  0.85301113     0.80200
N1085       N  0.78620420  0.80398460  0.85226814    -0.78100
C1086       C  0.77596388  0.83484041  0.83278359     0.82600
N1087       N  0.81738695  0.86573730  0.81343680    -0.78100
C1088       C  0.86698712  0.86390724  0.81296682     0.82700
N1089       N  0.87712170  0.83490404  0.83305389    -0.79800
C1090       C  0.80766078  0.84117127  0.64605546     0.80200
N1091       N  0.80657312  0.79031614  0.64378359    -0.78100
C1092       C  0.83286853  0.77472545  0.66333590     0.82600
N1093       N  0.85802292  0.80947625  0.68572117    -0.78100
C1094       C  0.85619432  0.85853870  0.68903740     0.82700
N1095       N  0.83166518  0.87471592  0.66895914    -0.79800
C1096       C  0.67253400  0.98099969  0.52256384     0.80200
N1097       N  0.62194791  0.98037910  0.52193353    -0.78100
C1098       C  0.60730796  0.50124245  0.49962036     0.82600
N1099       N  0.64333014  0.52209459  0.97752407    -0.78100
C1100       C  0.69335570  0.52156911  0.97726919     0.82700
N1101       N  0.70846849  0.50137196  0.00002151    -0.79800
C1102       C  0.50262183  0.64608165  0.68900695     0.80200
N1103       N  0.95173353  0.64427519  0.68570714    -0.78100
C1104       C  0.94213123  0.66944026  0.66332817     0.82600
N1105       N  0.48399938  0.69571020  0.64376435    -0.78100
C1106       C  0.53375891  0.69460235  0.64601910     0.82700
N1107       N  0.54331229  0.67059601  0.66891742    -0.79800
C1108       C  0.64376930  0.99969552  0.68900097     0.80200
N1109       N  0.69282634  0.55055826  0.68570819    -0.78100
C1110       C  0.72757098  0.56017388  0.66332090     0.82600
N1111       N  0.71197669  0.01831781  0.64374334    -0.78100
C1112       C  0.66110812  0.96854441  0.64601326     0.82700
N1113       N  0.62757040  0.95899134  0.66891952    -0.79800
Zn1114     Zn  0.73895481  0.89722949  0.57789715     1.49700
Zn1115     Zn  0.65860811  0.76342528  0.57789688     1.49400
Zn1116     Zn  0.66750782  0.83478467  0.61586801     1.49100
Zn1117     Zn  0.60511602  0.84374634  0.57788384     1.49500
O1118       O  0.66755762  0.83480520  0.57944673    -1.84200
O1119       O  0.77162841  0.87100959  0.55061457    -0.74800
O1120       O  0.61261660  0.71660759  0.61430539    -0.74600
O1121       O  0.71935507  0.81169674  0.62753408    -0.74200
O1122       O  0.73140843  0.77626050  0.55570509    -0.74800
O1123       O  0.78572117  0.89803528  0.61431930    -0.74400
O1124       O  0.59253219  0.78289779  0.62747568    -0.75000
O1125       O  0.60425334  0.88970921  0.61428539    -0.74400
O1126       O  0.59970645  0.73076567  0.55062150    -0.75200
O1127       O  0.69059168  0.90973135  0.62751036    -0.74600
O1128       O  0.54515188  0.77094423  0.55570238    -0.75000
O1129       O  0.63136258  0.90264733  0.55061081    -0.74900
O1130       O  0.72611299  0.95720435  0.55572888    -0.74700
C1131       C  0.76802293  0.82395798  0.54424009     0.77100
C1132       C  0.58143059  0.73203800  0.62800810     0.77600
C1133       C  0.77023982  0.85142592  0.62804634     0.76500
C1134       C  0.65085819  0.92086453  0.62801284     0.76900
C1135       C  0.55625067  0.73435006  0.54424328     0.78000
C1136       C  0.67842415  0.94611976  0.54425784     0.77100
C1137       C  0.98090049  0.67388547  0.97724116     0.80200
N1138       N  0.50106327  0.70917354  0.50000319    -0.79900
C1139       C  0.52141645  0.69359673  0.52253092     0.82600
N1140       N  0.52205859  0.64364523  0.52189230    -0.78100
C1141       C  0.50122798  0.60816296  0.49958766     0.82700
N1142       N  0.98039227  0.62334256  0.97748845    -0.79800
C1143       C  0.63840618  0.50501625  0.81299080     0.80200
N1144       N  0.63660528  0.95359507  0.81344646    -0.78100
C1145       C  0.66751283  0.94307702  0.83278879     0.82600
N1146       N  0.69836701  0.48418562  0.85227885    -0.78100
C1147       C  0.69645419  0.53371432  0.85302551     0.82700
N1148       N  0.66742375  0.54416509  0.83307489    -0.79800
C1149       C  0.99729869  0.63531279  0.81300729     0.80200
N1150       N  0.54873165  0.68493018  0.81346631    -0.78100
C1151       C  0.55925756  0.72636785  0.83279960     0.82600
N1152       N  0.01816079  0.71612922  0.85228133    -0.78100
C1153       C  0.96862260  0.66467877  0.85303504     0.82700
N1154       N  0.95815433  0.62518192  0.83309120    -0.79800
Zn1155     Zn  0.89574063  0.73952492  0.92208469     1.49700
Zn1156     Zn  0.76290444  0.65826430  0.92207076     1.49400
Zn1157     Zn  0.83426176  0.66811692  0.88431367     1.49100
Zn1158     Zn  0.84413392  0.60666245  0.92209161     1.49500
O1159       O  0.83426603  0.66814809  0.92091884    -1.84200
O1160       O  0.86960793  0.77170197  0.94941772    -0.74800
O1161       O  0.71776418  0.61086928  0.88555713    -0.74600
O1162       O  0.80723781  0.71763981  0.87264365    -0.74200
O1163       O  0.77486948  0.73104766  0.94423239    -0.74800
O1164       O  0.89349351  0.78463188  0.88556239    -0.74400
O1165       O  0.78470804  0.59154162  0.87267239    -0.75000
O1166       O  0.89147755  0.60885672  0.88557942    -0.74400
O1167       O  0.73072093  0.59995936  0.94940363    -0.75200
O1168       O  0.91082309  0.69512846  0.87266295    -0.74600
O1169       O  0.77135468  0.54586540  0.94426146    -0.75000
O1170       O  0.90245993  0.63281492  0.94941197    -0.74900
O1171       O  0.95656200  0.72755800  0.94423530    -0.74700
C1172       C  0.82247065  0.76786943  0.95574070     0.77100
C1173       C  0.73371559  0.57999005  0.87188794     0.77600
C1174       C  0.84666461  0.76864751  0.87187626     0.76500
C1175       C  0.92235819  0.65567991  0.87189425     0.76900
C1176       C  0.73454084  0.55665996  0.95575003     0.78000
C1177       C  0.94577780  0.67995398  0.95573449     0.77100
Zn1178     Zn  0.93807429  0.50921756  0.74448504     1.49700
Zn1179     Zn  0.50089474  0.50141616  0.78130186     1.49400
Zn1180     Zn  0.99311869  0.93086975  0.74446469     1.49100
Zn1181     Zn  0.57148688  0.56424893  0.74447079     1.49500
O1182       O  0.50088667  0.50144221  0.74467881    -1.84200
O1183       O  0.94075246  0.55694670  0.78110653    -0.74800
O1184       O  0.92436833  0.95190054  0.79298092    -0.74600
O1185       O  0.93514090  0.89525756  0.71696831    -0.74200
O1186       O  0.02790847  0.57794040  0.79302500    -0.74800
O1187       O  0.87957643  0.93427571  0.72293807    -0.74400
O1188       O  0.94536878  0.88575479  0.78107556    -0.75000
O1189       O  0.60710896  0.04191910  0.71696003    -0.74400
O1190       O  0.55040450  0.47438802  0.79300346    -0.75200
O1191       O  0.56804157  0.94730813  0.72290427    -0.74600
O1192       O  0.61657269  0.56155425  0.78108983    -0.75000
O1193       O  0.55502775  0.62272884  0.72289683    -0.74900
O1194       O  0.46040461  0.56718163  0.71697728    -0.74700
C1195       C  0.98802782  0.58873803  0.79427334     0.77100
C1196       C  0.91356433  0.90121942  0.79423135     0.77600
C1197       C  0.89105203  0.89807616  0.71115349     0.76500
C1198       C  0.60425491  0.99500301  0.71112709     0.76900
C1199       C  0.60109365  0.51427645  0.79425215     0.78000
C1200       C  0.50732389  0.61124978  0.71113191     0.77100
loop_ 
_geom_bond_atom_site_label_1 
_geom_bond_atom_site_label_2 
_geom_bond_distance 
_geom_bond_site_symmetry_2 
_ccdc_geom_bond_type 
C1            C6   1.406       .  A
C1          C902   1.406   1_455  A
C1           C91   1.479       .  S
C2          C901   1.406       .  A
C2          C153   1.406       .  A
C2            H7   1.084       .  S
C3            C4   1.406       .  A
C3          C152   1.406       .  A
C3          C182   1.479       .  S
C4          C905   1.406       .  A
C4            H8   1.084       .  S
C5          C904   1.406   1_545  A
C5          C156   1.406       .  A
C5          C198   1.479       .  S
C6          C155   1.406       .  A
C6            H9   1.084       .  S
C10          C11   1.418       .  A
C10          C15   1.418       .  A
C10          C36   1.511       .  S
C11          C12   1.418       .  A
C11          H16   1.083       .  S
C12          C13   1.418       .  A
C12         C101   1.510       .  S
C13          C14   1.418       .  A
C13          H17   1.083       .  S
C14          C15   1.418       .  A
C14          C95   1.511       .  S
C15          H18   1.083       .  S
C19          C20   1.413       .  A
C19          C24   1.411       .  A
C19          C42   1.495       .  S
C20          C21   1.411       .  A
C20          H25   1.084       .  S
C21          C22   1.413       .  A
C21          C54   1.495       .  S
C22          C23   1.411       .  A
C22          H26   1.084       .  S
C23          C24   1.413       .  A
C23          C60   1.495       .  S
C24          H27   1.084       .  S
C28          C81   1.460       .  S
C28          N29   1.363       .  A
C28          N33   1.364       .  A
N29         C180   1.363   1_554  A
C30         C122   1.460       .  S
C30          N31   1.364       .  A
C30         N179   1.363       .  A
N31         C182   1.349       .  A
C32         C153   1.479       .  S
C32          N33   1.349   1_556  A
C32         N181   1.349       .  A
C34         C124   1.459       .  S
C34          N35   1.371       .  A
C34          N39   1.348       .  A
N35          C36   1.365       .  A
C36          N37   1.365       .  A
N37          C38   1.371       .  A
C38         C146   1.460       .  S
C38          N39   1.348       .  A
C40          C83   1.456       .  S
C40          N41   1.369       .  A
C40          N45   1.356       .  A
N41          C42   1.360       .  A
C42          N43   1.355       .  A
N43          C44   1.365       .  A
C44         C147   1.459       .  S
C44          N45   1.354       .  A
C46          C86   1.459       .  S
C46          N47   1.364       .  A
C46         N501   1.363       .  A
N47         C348   1.349   1_554  A
C48         C155   1.479       .  S
C48         N347   1.349   1_546  A
C48         N199   1.349       .  A
N49          C50   1.364       .  A
N49         C198   1.349       .  A
C50         C126   1.460       .  S
C50          N51   1.362       .  A
N51         C496   1.363   1_545  A
C52         C150   1.459       .  S
C52          N57   1.354       .  A
C52         N653   1.366   1_455  A
N53          C54   1.355       .  A
N53         C652   1.366       .  A
C54         N655   1.360       .  A
N55          C56   1.369   1_655  A
N55         C654   1.360       .  A
C56          C82   1.456       .  S
C56          N57   1.356       .  A
C58         C148   1.459       .  S
C58          N63   1.354       .  A
C58         N359   1.365       .  A
N59          C60   1.355       .  A
N59         C358   1.365   1_545  A
C60         N361   1.360       .  A
N61          C62   1.369       .  A
N61         C360   1.360       .  A
C62          C84   1.456       .  S
C62          N63   1.356       .  A
Zn64         O68   1.828       .  S
Zn64         O69   1.896       .  S
Zn64         O73   2.136       .  S
Zn64         O80   2.107       .  S
Zn65         O68   1.828       .  S
Zn65         O70   2.136       .  S
Zn65         O72   2.107       .  S
Zn65         O76   1.896       .  S
Zn66         O68   1.727       .  S
Zn66         O71   1.886       .  S
Zn66         O74   1.886       .  S
Zn66         O77   1.886       .  S
Zn67         O68   1.829       .  S
Zn67         O75   2.136       .  S
Zn67         O78   2.107       .  S
Zn67         O79   1.896       .  S
O69          C81   1.267       .  A
O70          C82   1.291       .  A
O71          C83   1.257       .  A
O72          C81   1.292       .  A
O73          C83   1.291       .  A
O74          C82   1.257       .  A
O75          C84   1.291       .  A
O76          C85   1.267       .  A
O77          C84   1.257       .  A
O78          C85   1.292       .  A
O79          C86   1.267       .  A
O80          C86   1.292       .  A
C85          C89   1.459       .  S
C87         C127   1.460       .  S
C87          N92   1.364       .  A
C87         N838   1.362       .  A
N88          C89   1.363       .  A
N88         C837   1.362   1_454  A
C89          N90   1.364       .  A
N90          C91   1.349   1_554  A
C91         N842   1.349   1_455  A
N92         C841   1.349       .  A
C93         C149   1.460       .  S
C93          N98   1.348       .  A
C93         N394   1.371   1_545  A
N94          C95   1.365       .  A
N94         C393   1.371       .  A
C95         N396   1.365       .  A
N96          C97   1.371   1_565  A
N96         C395   1.365       .  A
C97         C123   1.459       .  S
C97          N98   1.348       .  A
C99         C145   1.460       .  S
C99         N104   1.348       .  A
C99         N700   1.371       .  A
N100        C101   1.365       .  A
N100        C699   1.371   1_455  A
C101        N702   1.365       .  A
N102        C103   1.371       .  A
N102        C701   1.365       .  A
C103        C125   1.459       .  S
C103        N104   1.348       .  A
Zn105       O109   1.817       .  S
Zn105       O110   1.888       .  S
Zn105       O114   2.138       .  S
Zn105       O121   2.113       .  S
Zn106       O109   1.817       .  S
Zn106       O111   2.139       .  S
Zn106       O113   2.113       .  S
Zn106       O117   1.887       .  S
Zn107       O109   1.735       .  S
Zn107       O112   1.906       .  S
Zn107       O115   1.906       .  S
Zn107       O118   1.906       .  S
Zn108       O109   1.817       .  S
Zn108       O116   2.139       .  S
Zn108       O119   2.113       .  S
Zn108       O120   1.887       .  S
O110        C122   1.266       .  A
O111        C123   1.293       .  A
O112        C124   1.257       .  A
O113        C122   1.293       .  A
O114        C124   1.293       .  A
O115        C123   1.257       .  A
O116        C125   1.293       .  A
O117        C126   1.266       .  A
O118        C125   1.257       .  A
O119        C126   1.293       .  A
O120        C127   1.266       .  A
O121        C127   1.293       .  A
Zn128       O732   1.819       .  S
Zn128       O133   2.145       .  S
Zn128       O437   2.114   1_545  S
Zn128       O744   1.894       .  S
Zn129       O132   1.736       .  S
Zn129       O140   1.906   1_545  S
Zn129      O1034   1.906   1_445  S
Zn129       O736   1.906       .  S
Zn130      O1032   1.818       .  S
Zn130       O135   1.894       .  S
Zn130       O138   2.145       .  S
Zn130       O741   2.114       .  S
Zn131       O132   1.818       .  S
Zn131       O142   2.146       .  S
Zn131       O143   2.114       .  S
Zn131       O439   1.894       .  S
O132       Zn728   1.819   1_455  S
O132      Zn1030   1.818   1_445  S
O133        C145   1.293       .  A
O134      Zn1029   1.906       .  S
O134        C146   1.256       .  A
O135        C147   1.266       .  A
O136       Zn729   1.906       .  S
O136        C145   1.256       .  A
O137       Zn428   2.114       .  S
O137        C147   1.296       .  A
O138        C146   1.293       .  A
O139       Zn431   1.894       .  S
O139        C148   1.266       .  A
O140        C149   1.256   1_565  A
O141       Zn730   2.114   1_455  S
O141        C148   1.296       .  A
O142        C149   1.293       .  A
O143        C150   1.296       .  A
O144       Zn728   1.894       .  S
O144        C150   1.266   1_655  A
C151       C1052   1.406   1_455  A
C151        C156   1.406       .  A
C151        C241   1.479       .  S
C152       C1051   1.406       .  A
C152        H157   1.084       .  S
C153        C154   1.406       .  A
C154       C1055   1.406       .  A
C154        H158   1.084       .  S
C155       C1054   1.406   1_545  A
C156        H159   1.084       .  S
C160        C161   1.418       .  A
C160        C165   1.418       .  A
C160        C186   1.511       .  S
C161        C162   1.418       .  A
C161        H166   1.083       .  S
C162        C163   1.418       .  A
C162        C251   1.510       .  S
C163        C164   1.418       .  A
C163        H167   1.083       .  S
C164        C165   1.418       .  A
C164        C245   1.511       .  S
C165        H168   1.083       .  S
C169        C170   1.413       .  A
C169        C174   1.411       .  A
C169        C192   1.495       .  S
C170        C171   1.411       .  A
C170        H175   1.084       .  S
C171        C172   1.413       .  A
C171        C204   1.495       .  S
C172        C173   1.411       .  A
C172        H176   1.084       .  S
C173        C174   1.413       .  A
C173        C210   1.495       .  S
C174        H177   1.084       .  S
C178        C231   1.460       .  S
C178        N179   1.363       .  A
C178        N183   1.364       .  A
C180        C272   1.460       .  S
C180        N181   1.364       .  A
C182        N183   1.349       .  A
C184        C274   1.459       .  S
C184        N185   1.371       .  A
C184        N189   1.348       .  A
N185        C186   1.365       .  A
C186        N187   1.365       .  A
N187        C188   1.371       .  A
C188        C296   1.460       .  S
C188        N189   1.348       .  A
C190        C233   1.456       .  S
C190        N191   1.369       .  A
C190        N195   1.356       .  A
N191        C192   1.360       .  A
C192        N193   1.355       .  A
N193        C194   1.365       .  A
C194        C297   1.459       .  S
C194        N195   1.354       .  A
C196        C236   1.459       .  S
C196        N197   1.364       .  A
C196        N351   1.363       .  A
N197        C498   1.349       .  A
C198        N497   1.349   1_545  A
N199        C200   1.364       .  A
C200        C276   1.460       .  S
C200        N201   1.362   1_556  A
N201        C346   1.363   1_545  A
C202        C300   1.459       .  S
C202        N803   1.366   1_455  A
C202        N207   1.354       .  A
N203        C802   1.366       .  A
N203        C204   1.355       .  A
C204        N805   1.360       .  A
N205        C804   1.360       .  A
N205        C206   1.369   1_655  A
C206        C232   1.456       .  S
C206        N207   1.356       .  A
C208        C298   1.459       .  S
C208        N509   1.365       .  A
C208        N213   1.354       .  A
N209        C508   1.365   1_545  A
N209        C210   1.355       .  A
C210        N511   1.360       .  A
N211        C510   1.360       .  A
N211        C212   1.369       .  A
C212        C234   1.456       .  S
C212        N213   1.356       .  A
Zn214       O218   1.828       .  S
Zn214       O219   1.896       .  S
Zn214       O223   2.136       .  S
Zn214       O230   2.107       .  S
Zn215       O218   1.828       .  S
Zn215       O220   2.136       .  S
Zn215       O222   2.107       .  S
Zn215       O226   1.896       .  S
Zn216       O218   1.727       .  S
Zn216       O221   1.886       .  S
Zn216       O224   1.886       .  S
Zn216       O227   1.886       .  S
Zn217       O218   1.829       .  S
Zn217       O225   2.136       .  S
Zn217       O228   2.107       .  S
Zn217       O229   1.896       .  S
O219        C231   1.267       .  A
O220        C232   1.291       .  A
O221        C233   1.257       .  A
O222        C231   1.292       .  A
O223        C233   1.291       .  A
O224        C232   1.257       .  A
O225        C234   1.291       .  A
O226        C235   1.267       .  A
O227        C234   1.257       .  A
O228        C235   1.292       .  A
O229        C236   1.267       .  A
O230        C236   1.292       .  A
C235        C239   1.459       .  S
C237        C277   1.460       .  S
C237        N688   1.362   1_556  A
C237        N242   1.364       .  A
N238        C687   1.362   1_455  A
N238        C239   1.363       .  A
C239        N240   1.364       .  A
N240        C241   1.349       .  A
C241        N692   1.349   1_455  A
N242        C691   1.349       .  A
C243        C299   1.460       .  S
C243        N544   1.371   1_545  A
C243        N248   1.348       .  A
N244        C543   1.371       .  A
N244        C245   1.365       .  A
C245        N546   1.365       .  A
N246        C545   1.365       .  A
N246        C247   1.371   1_565  A
C247        C273   1.459       .  S
C247        N248   1.348       .  A
C249        C295   1.460       .  S
C249        N850   1.371       .  A
C249        N254   1.348       .  A
N250        C849   1.371   1_455  A
N250        C251   1.365       .  A
C251        N852   1.365       .  A
N252        C851   1.365       .  A
N252        C253   1.371       .  A
C253        C275   1.459       .  S
C253        N254   1.348       .  A
Zn255       O259   1.817       .  S
Zn255       O260   1.888       .  S
Zn255       O264   2.138       .  S
Zn255       O271   2.113       .  S
Zn256       O259   1.817       .  S
Zn256       O261   2.139       .  S
Zn256       O263   2.113       .  S
Zn256       O267   1.887       .  S
Zn257       O259   1.735       .  S
Zn257       O262   1.906       .  S
Zn257       O265   1.906       .  S
Zn257       O268   1.906       .  S
Zn258       O259   1.817       .  S
Zn258       O266   2.139       .  S
Zn258       O269   2.113       .  S
Zn258       O270   1.887       .  S
O260        C272   1.266       .  A
O261        C273   1.293       .  A
O262        C274   1.257       .  A
O263        C272   1.293       .  A
O264        C274   1.293       .  A
O265        C273   1.257       .  A
O266        C275   1.293       .  A
O267        C276   1.266       .  A
O268        C275   1.257       .  A
O269        C276   1.293       .  A
O270        C277   1.266       .  A
O271        C277   1.293       .  A
Zn278       O882   1.819       .  S
Zn278       O283   2.145       .  S
Zn278       O587   2.114   1_545  S
Zn278       O894   1.894       .  S
Zn279       O282   1.736       .  S
Zn279      O1184   1.906   1_445  S
Zn279       O886   1.906       .  S
Zn279       O290   1.906   1_545  S
Zn280      O1182   1.818       .  S
Zn280       O285   1.894       .  S
Zn280       O288   2.145       .  S
Zn280       O891   2.114       .  S
Zn281       O282   1.818       .  S
Zn281       O589   1.894       .  S
Zn281       O292   2.146       .  S
Zn281       O293   2.114       .  S
O282       Zn878   1.819   1_455  S
O282      Zn1180   1.818   1_445  S
O283        C295   1.293       .  A
O284      Zn1179   1.906       .  S
O284        C296   1.256       .  A
O285        C297   1.266       .  A
O286       Zn879   1.906       .  S
O286        C295   1.256       .  A
O287       Zn578   2.114       .  S
O287        C297   1.296       .  A
O288        C296   1.293       .  A
O289       Zn581   1.894       .  S
O289        C298   1.266       .  A
O290        C299   1.256   1_565  A
O291       Zn880   2.114   1_455  S
O291        C298   1.296       .  A
O292        C299   1.293       .  A
O293        C300   1.296       .  A
O294       Zn878   1.894       .  S
O294        C300   1.266   1_655  A
C301        C602   1.406   1_455  A
C301        C306   1.406       .  A
C301        C391   1.479       .  S
C302        C601   1.406       .  A
C302        C453   1.406   1_545  A
C302        H307   1.084       .  S
C303        C452   1.406   1_565  A
C303        C304   1.406       .  A
C303        C482   1.479       .  S
C304        C605   1.406   1_565  A
C304        H308   1.084       .  S
C305        C604   1.406       .  A
C305        C456   1.406       .  A
C305        C498   1.479       .  S
C306        C455   1.406       .  A
C306        H309   1.084       .  S
C310        C311   1.418       .  A
C310        C315   1.418       .  A
C310        C336   1.511       .  S
C311        C312   1.418       .  A
C311        H316   1.083       .  S
C312        C313   1.418       .  A
C312        C401   1.510       .  S
C313        C314   1.418       .  A
C313        H317   1.083       .  S
C314        C315   1.418       .  A
C314        C395   1.511       .  S
C315        H318   1.083       .  S
C319        C320   1.413       .  A
C319        C324   1.411       .  A
C319        C342   1.495       .  S
C320        C321   1.411       .  A
C320        H325   1.084       .  S
C321        C322   1.413       .  A
C321        C354   1.495       .  S
C322        C323   1.411       .  A
C322        H326   1.084       .  S
C323        C324   1.413       .  A
C323        C360   1.495       .  S
C324        H327   1.084       .  S
C328        C381   1.460       .  S
C328        N329   1.363       .  A
C328        N333   1.364       .  A
N329        C480   1.363   1_554  A
C330        C422   1.460       .  S
C330        N479   1.363       .  A
C330        N331   1.364       .  A
N331        C482   1.349       .  A
C332        C453   1.479       .  S
C332        N481   1.349       .  A
C332        N333   1.349   1_556  A
C334        C424   1.459       .  S
C334        N335   1.371       .  A
C334        N339   1.348       .  A
N335        C336   1.365       .  A
C336        N337   1.365       .  A
N337        C338   1.371       .  A
C338        C446   1.460       .  S
C338        N339   1.348       .  A
C340        C383   1.456       .  S
C340        N341   1.369       .  A
C340        N345   1.356       .  A
N341        C342   1.360       .  A
C342        N343   1.355       .  A
N343        C344   1.365       .  A
C344        C447   1.459       .  S
C344        N345   1.354       .  A
C346        C386   1.459       .  S
C346        N347   1.364       .  A
C348        C455   1.479       .  S
C348        N499   1.349       .  A
N349        C498   1.349       .  A
N349        C350   1.364       .  A
C350        C426   1.460       .  S
C350        N351   1.362       .  A
C352        C450   1.459       .  S
C352        N953   1.365   1_455  A
C352        N357   1.354       .  A
N353        C952   1.365       .  A
N353        C354   1.355       .  A
C354        N955   1.360       .  A
N355        C954   1.360       .  A
N355        C356   1.369   1_655  A
C356        C382   1.456       .  S
C356        N357   1.356       .  A
C358        C448   1.459       .  S
C358        N363   1.354       .  A
N359        C360   1.355       .  A
N361        C362   1.369   1_545  A
C362        C384   1.456       .  S
C362        N363   1.356       .  A
Zn364       O368   1.828       .  S
Zn364       O369   1.896       .  S
Zn364       O373   2.136       .  S
Zn364       O380   2.107       .  S
Zn365       O368   1.828       .  S
Zn365       O370   2.136       .  S
Zn365       O372   2.107       .  S
Zn365       O376   1.896       .  S
Zn366       O368   1.727       .  S
Zn366       O371   1.886       .  S
Zn366       O374   1.886       .  S
Zn366       O377   1.886       .  S
Zn367       O368   1.829       .  S
Zn367       O375   2.136       .  S
Zn367       O378   2.107       .  S
Zn367       O379   1.896       .  S
O369        C381   1.267       .  A
O370        C382   1.291       .  A
O371        C383   1.257       .  A
O372        C381   1.292       .  A
O373        C383   1.291       .  A
O374        C382   1.257       .  A
O375        C384   1.291       .  A
O376        C385   1.267       .  A
O377        C384   1.257       .  A
O378        C385   1.292       .  A
O379        C386   1.267       .  A
O380        C386   1.292       .  A
C385        C389   1.459       .  S
C387        C427   1.460       .  S
C387       N1138   1.362       .  A
C387        N392   1.364       .  A
N388       C1137   1.362   1_454  A
N388        C389   1.363       .  A
C389        N390   1.364       .  A
N390        C391   1.349   1_554  A
C391       N1142   1.349   1_455  A
N392       C1141   1.349       .  A
C393        C449   1.460       .  S
C393        N398   1.348       .  A
N394        C395   1.365       .  A
N396        C397   1.371       .  A
C397        C423   1.459       .  S
C397        N398   1.348       .  A
C399        C445   1.460       .  S
C399       N1000   1.371       .  A
C399        N404   1.348       .  A
N400        C999   1.371   1_455  A
N400        C401   1.365       .  A
C401       N1002   1.365       .  A
N402       C1001   1.365       .  A
N402        C403   1.371       .  A
C403        C425   1.459       .  S
C403        N404   1.348       .  A
Zn405       O409   1.817       .  S
Zn405       O410   1.888       .  S
Zn405       O414   2.139       .  S
Zn405       O421   2.113       .  S
Zn406       O409   1.817       .  S
Zn406       O411   2.139       .  S
Zn406       O413   2.113       .  S
Zn406       O417   1.887       .  S
Zn407       O409   1.735       .  S
Zn407       O412   1.906       .  S
Zn407       O415   1.906       .  S
Zn407       O418   1.906       .  S
Zn408       O409   1.817       .  S
Zn408       O416   2.138       .  S
Zn408       O419   2.113       .  S
Zn408       O420   1.887       .  S
O410        C422   1.266       .  A
O411        C423   1.293       .  A
O412        C424   1.257       .  A
O413        C422   1.293       .  A
O414        C424   1.293       .  A
O415        C423   1.257       .  A
O416        C425   1.293       .  A
O417        C426   1.266       .  A
O418        C425   1.257       .  A
O419        C426   1.293       .  A
O420        C427   1.266       .  A
O421        C427   1.293       .  A
Zn428      O1032   1.819       .  S
Zn428       O433   2.145       .  S
Zn428      O1044   1.894       .  S
Zn429       O432   1.736       .  S
Zn429       O734   1.906   1_455  S
Zn429      O1036   1.906       .  S
Zn429       O440   1.906       .  S
Zn430       O732   1.818   1_565  S
Zn430       O435   1.894       .  S
Zn430       O438   2.145       .  S
Zn430      O1041   2.114       .  S
Zn431       O432   1.818       .  S
Zn431       O442   2.146       .  S
Zn431       O443   2.114       .  S
O432      Zn1028   1.819   1_455  S
O432       Zn730   1.818   1_455  S
O433        C445   1.293       .  A
O434       Zn729   1.906   1_565  S
O434        C446   1.256       .  A
O435        C447   1.266       .  A
O436      Zn1029   1.906       .  S
O436        C445   1.256       .  A
O437        C447   1.296       .  A
O438        C446   1.293       .  A
O439        C448   1.266   1_545  A
O440        C449   1.256       .  A
O441      Zn1030   2.114   1_455  S
O441        C448   1.296       .  A
O442        C449   1.293       .  A
O443        C450   1.296       .  A
O444      Zn1028   1.894       .  S
O444        C450   1.266   1_655  A
C451        C752   1.406   1_455  A
C451        C456   1.406       .  A
C451        C541   1.479       .  S
C452        C751   1.406       .  A
C452        H457   1.084       .  S
C453        C454   1.406       .  A
C454        C755   1.406   1_565  A
C454        H458   1.084       .  S
C455        C754   1.406       .  A
C456        H459   1.084       .  S
C460        C461   1.418       .  A
C460        C465   1.418       .  A
C460        C486   1.511       .  S
C461        C462   1.418       .  A
C461        H466   1.083       .  S
C462        C463   1.418       .  A
C462        C551   1.510       .  S
C463        C464   1.418       .  A
C463        H467   1.083       .  S
C464        C465   1.418       .  A
C464        C545   1.511       .  S
C465        H468   1.083       .  S
C469        C470   1.413       .  A
C469        C474   1.411       .  A
C469        C492   1.495       .  S
C470        C471   1.411       .  A
C470        H475   1.084       .  S
C471        C472   1.413       .  A
C471        C504   1.495       .  S
C472        C473   1.411       .  A
C472        H476   1.084       .  S
C473        C474   1.413       .  A
C473        C510   1.495       .  S
C474        H477   1.084       .  S
C478        C531   1.460       .  S
C478        N479   1.363       .  A
C478        N483   1.364       .  A
C480        C572   1.460       .  S
C480        N481   1.364       .  A
C482        N483   1.349       .  A
C484        C574   1.459       .  S
C484        N485   1.371       .  A
C484        N489   1.348       .  A
N485        C486   1.365       .  A
C486        N487   1.365       .  A
N487        C488   1.371       .  A
C488        C596   1.460       .  S
C488        N489   1.348       .  A
C490        C533   1.456       .  S
C490        N491   1.369       .  A
C490        N495   1.356       .  A
N491        C492   1.360       .  A
C492        N493   1.355       .  A
N493        C494   1.365       .  A
C494        C597   1.459       .  S
C494        N495   1.354       .  A
C496        C536   1.459       .  S
C496        N497   1.364       .  A
N499        C500   1.364       .  A
C500        C576   1.460       .  S
C500        N501   1.362   1_556  A
C502        C600   1.459       .  S
C502       N1103   1.365   1_455  A
C502        N507   1.354       .  A
N503       C1102   1.366       .  A
N503        C504   1.355       .  A
C504       N1105   1.360       .  A
N505       C1104   1.360       .  A
N505        C506   1.369   1_655  A
C506        C532   1.456       .  S
C506        N507   1.356       .  A
C508        C598   1.459       .  S
C508        N513   1.354       .  A
N509        C510   1.355       .  A
N511        C512   1.369   1_545  A
C512        C534   1.456       .  S
C512        N513   1.356       .  A
Zn514       O518   1.828       .  S
Zn514       O519   1.896       .  S
Zn514       O523   2.136       .  S
Zn514       O530   2.107       .  S
Zn515       O518   1.828       .  S
Zn515       O520   2.136       .  S
Zn515       O522   2.107       .  S
Zn515       O526   1.896       .  S
Zn516       O518   1.727       .  S
Zn516       O521   1.886       .  S
Zn516       O524   1.886       .  S
Zn516       O527   1.886       .  S
Zn517       O518   1.829       .  S
Zn517       O525   2.136       .  S
Zn517       O528   2.107       .  S
Zn517       O529   1.896       .  S
O519        C531   1.267       .  A
O520        C532   1.291       .  A
O521        C533   1.257       .  A
O522        C531   1.292       .  A
O523        C533   1.291       .  A
O524        C532   1.257       .  A
O525        C534   1.291       .  A
O526        C535   1.267       .  A
O527        C534   1.257       .  A
O528        C535   1.292       .  A
O529        C536   1.267       .  A
O530        C536   1.292       .  A
C535        C539   1.459       .  S
C537        C577   1.460       .  S
C537        N988   1.362   1_556  A
C537        N542   1.364       .  A
N538        C987   1.362   1_455  A
N538        C539   1.363       .  A
C539        N540   1.364       .  A
N540        C541   1.349       .  A
C541        N992   1.349   1_455  A
N542        C991   1.349       .  A
C543        C599   1.460       .  S
C543        N548   1.348       .  A
N544        C545   1.365       .  A
N546        C547   1.371       .  A
C547        C573   1.459       .  S
C547        N548   1.348       .  A
C549        C595   1.460       .  S
C549       N1150   1.371       .  A
C549        N554   1.348       .  A
N550       C1149   1.371   1_455  A
N550        C551   1.365       .  A
C551       N1152   1.365       .  A
N552       C1151   1.365       .  A
N552        C553   1.371       .  A
C553        C575   1.459       .  S
C553        N554   1.348       .  A
Zn555       O559   1.817       .  S
Zn555       O560   1.888       .  S
Zn555       O564   2.139       .  S
Zn555       O571   2.113       .  S
Zn556       O559   1.817       .  S
Zn556       O561   2.139       .  S
Zn556       O563   2.113       .  S
Zn556       O567   1.887       .  S
Zn557       O559   1.735       .  S
Zn557       O562   1.906       .  S
Zn557       O565   1.906       .  S
Zn557       O568   1.906       .  S
Zn558       O559   1.817       .  S
Zn558       O566   2.138       .  S
Zn558       O569   2.113       .  S
Zn558       O570   1.887       .  S
O560        C572   1.266       .  A
O561        C573   1.293       .  A
O562        C574   1.257       .  A
O563        C572   1.293       .  A
O564        C574   1.293       .  A
O565        C573   1.257       .  A
O566        C575   1.293       .  A
O567        C576   1.266       .  A
O568        C575   1.257       .  A
O569        C576   1.293       .  A
O570        C577   1.266       .  A
O571        C577   1.293       .  A
Zn578      O1182   1.819       .  S
Zn578       O583   2.145       .  S
Zn578      O1194   1.894       .  S
Zn579       O582   1.736       .  S
Zn579       O884   1.906   1_455  S
Zn579      O1186   1.906       .  S
Zn579       O590   1.906       .  S
Zn580       O882   1.818   1_565  S
Zn580       O585   1.894       .  S
Zn580       O588   2.145       .  S
Zn580      O1191   2.114       .  S
Zn581       O582   1.818       .  S
Zn581       O592   2.146       .  S
Zn581       O593   2.114       .  S
O582      Zn1178   1.819   1_455  S
O582       Zn880   1.818   1_455  S
O583        C595   1.293       .  A
O584       Zn879   1.906   1_565  S
O584        C596   1.256       .  A
O585        C597   1.266       .  A
O586      Zn1179   1.906       .  S
O586        C595   1.256       .  A
O587        C597   1.296       .  A
O588        C596   1.293       .  A
O589        C598   1.266   1_545  A
O590        C599   1.256       .  A
O591      Zn1180   2.114   1_455  S
O591        C598   1.296       .  A
O592        C599   1.293       .  A
O593        C600   1.296       .  A
O594      Zn1178   1.894       .  S
O594        C600   1.266   1_655  A
C601        C606   1.406       .  A
C601        C691   1.479       .  S
C602        C753   1.406       .  A
C602        H607   1.084       .  S
C603        C752   1.406       .  A
C603        C604   1.406   1_655  A
C603        C782   1.479       .  S
C604        H608   1.084       .  S
C605        C756   1.406       .  A
C605        C798   1.479       .  S
C606        C755   1.406       .  A
C606        H609   1.084       .  S
C610        C611   1.418       .  A
C610        C615   1.418       .  A
C610        C636   1.511       .  S
C611        C612   1.418       .  A
C611        H616   1.083       .  S
C612        C613   1.418       .  A
C612        C701   1.510       .  S
C613        C614   1.418       .  A
C613        H617   1.083       .  S
C614        C615   1.418       .  A
C614        C695   1.511       .  S
C615        H618   1.083       .  S
C619        C620   1.413       .  A
C619        C624   1.411       .  A
C619        C642   1.495       .  S
C620        C621   1.411       .  A
C620        H625   1.084       .  S
C621        C622   1.413       .  A
C621        C654   1.495       .  S
C622        C623   1.411       .  A
C622        H626   1.084       .  S
C623        C624   1.413       .  A
C623        C660   1.495       .  S
C624        H627   1.084       .  S
C628        C681   1.460       .  S
C628        N629   1.363       .  A
C628        N633   1.364       .  A
N629        C780   1.363   1_554  A
C630        C722   1.460       .  S
C630        N779   1.363       .  A
C630        N631   1.364       .  A
N631        C782   1.349       .  A
C632        C753   1.479       .  S
C632        N781   1.349       .  A
C632        N633   1.349   1_556  A
C634        C724   1.459       .  S
C634        N635   1.371       .  A
C634        N639   1.348       .  A
N635        C636   1.365       .  A
C636        N637   1.365       .  A
N637        C638   1.371       .  A
C638        C746   1.460       .  S
C638        N639   1.348       .  A
C640        C683   1.456       .  S
C640        N641   1.369       .  A
C640        N645   1.356       .  A
N641        C642   1.360       .  A
C642        N643   1.355       .  A
N643        C644   1.365       .  A
C644        C747   1.459       .  S
C644        N645   1.354       .  A
C646        C686   1.459       .  S
C646        N647   1.364       .  A
C646       N1101   1.363       .  A
N647        C948   1.349   1_554  A
C648        C755   1.479       .  S
C648        N947   1.349   1_546  A
C648        N799   1.349       .  A
N649        C798   1.349       .  A
N649        C650   1.364       .  A
C650        C726   1.460       .  S
C650        N651   1.362       .  A
N651       C1096   1.363   1_545  A
C652        C750   1.459       .  S
C652        N657   1.354       .  A
N653        C654   1.355       .  A
N655        C656   1.369       .  A
C656        C682   1.456       .  S
C656        N657   1.356       .  A
C658        C748   1.459       .  S
C658        N959   1.365       .  A
C658        N663   1.354       .  A
N659        C958   1.365   1_545  A
N659        C660   1.355       .  A
C660        N961   1.360       .  A
N661        C960   1.360       .  A
N661        C662   1.369       .  A
C662        C684   1.456       .  S
C662        N663   1.356       .  A
Zn664       O668   1.828       .  S
Zn664       O669   1.896       .  S
Zn664       O673   2.136       .  S
Zn664       O680   2.107       .  S
Zn665       O668   1.828       .  S
Zn665       O670   2.136       .  S
Zn665       O672   2.107       .  S
Zn665       O676   1.896       .  S
Zn666       O668   1.727       .  S
Zn666       O671   1.886       .  S
Zn666       O674   1.886       .  S
Zn666       O677   1.886       .  S
Zn667       O668   1.829       .  S
Zn667       O675   2.136       .  S
Zn667       O678   2.107       .  S
Zn667       O679   1.896       .  S
O669        C681   1.267       .  A
O670        C682   1.291       .  A
O671        C683   1.257       .  A
O672        C681   1.292       .  A
O673        C683   1.291       .  A
O674        C682   1.257       .  A
O675        C684   1.291       .  A
O676        C685   1.267       .  A
O677        C684   1.257       .  A
O678        C685   1.292       .  A
O679        C686   1.267       .  A
O680        C686   1.292       .  A
C685        C689   1.459       .  S
C687        C727   1.460       .  S
C687        N692   1.364       .  A
N688        C689   1.363       .  A
C689        N690   1.364       .  A
N690        C691   1.349   1_554  A
C693        C749   1.460       .  S
C693        N994   1.371   1_545  A
C693        N698   1.348       .  A
N694        C993   1.371       .  A
N694        C695   1.365       .  A
C695        N996   1.365       .  A
N696        C995   1.365       .  A
N696        C697   1.371   1_565  A
C697        C723   1.459       .  S
C697        N698   1.348       .  A
C699        C745   1.460       .  S
C699        N704   1.348       .  A
N700        C701   1.365       .  A
N702        C703   1.371   1_455  A
C703        C725   1.459       .  S
C703        N704   1.348       .  A
Zn705       O709   1.817       .  S
Zn705       O710   1.888       .  S
Zn705       O714   2.138       .  S
Zn705       O721   2.113       .  S
Zn706       O709   1.817       .  S
Zn706       O711   2.139       .  S
Zn706       O713   2.113       .  S
Zn706       O717   1.887       .  S
Zn707       O709   1.735       .  S
Zn707       O712   1.906       .  S
Zn707       O715   1.906       .  S
Zn707       O718   1.906       .  S
Zn708       O709   1.817       .  S
Zn708       O716   2.139       .  S
Zn708       O719   2.113       .  S
Zn708       O720   1.887       .  S
O710        C722   1.266       .  A
O711        C723   1.293       .  A
O712        C724   1.257       .  A
O713        C722   1.293       .  A
O714        C724   1.293       .  A
O715        C723   1.257       .  A
O716        C725   1.293       .  A
O717        C726   1.266       .  A
O718        C725   1.257       .  A
O719        C726   1.293       .  A
O720        C727   1.266       .  A
O721        C727   1.293       .  A
Zn728       O733   2.145       .  S
Zn728      O1037   2.114   1_545  S
Zn729       O732   1.736       .  S
Zn729       O740   1.906   1_545  S
Zn730       O735   1.894       .  S
Zn730       O738   2.145       .  S
Zn731       O732   1.818       .  S
Zn731      O1039   1.894       .  S
Zn731       O742   2.146       .  S
Zn731       O743   2.114       .  S
O733        C745   1.293       .  A
O734        C746   1.256       .  A
O735        C747   1.266       .  A
O736        C745   1.256   1_455  A
O737      Zn1028   2.114       .  S
O737        C747   1.296       .  A
O738        C746   1.293       .  A
O739      Zn1031   1.894       .  S
O739        C748   1.266       .  A
O740        C749   1.256   1_565  A
O741        C748   1.296       .  A
O742        C749   1.293       .  A
O743        C750   1.296       .  A
O744        C750   1.266       .  A
C751        C756   1.406       .  A
C751        C841   1.479       .  S
C752        H757   1.084       .  S
C753        C754   1.406   1_655  A
C754        H758   1.084       .  S
C756        H759   1.084       .  S
C760        C761   1.418       .  A
C760        C765   1.418       .  A
C760        C786   1.511       .  S
C761        C762   1.418       .  A
C761        H766   1.083       .  S
C762        C763   1.418       .  A
C762        C851   1.510       .  S
C763        C764   1.418       .  A
C763        H767   1.083       .  S
C764        C765   1.418       .  A
C764        C845   1.511       .  S
C765        H768   1.083       .  S
C769        C770   1.413       .  A
C769        C774   1.411       .  A
C769        C792   1.495       .  S
C770        C771   1.411       .  A
C770        H775   1.084       .  S
C771        C772   1.413       .  A
C771        C804   1.495       .  S
C772        C773   1.411       .  A
C772        H776   1.084       .  S
C773        C774   1.413       .  A
C773        C810   1.495       .  S
C774        H777   1.084       .  S
C778        C831   1.460       .  S
C778        N779   1.363       .  A
C778        N783   1.364       .  A
C780        C872   1.460       .  S
C780        N781   1.364       .  A
C782        N783   1.349       .  A
C784        C874   1.459       .  S
C784        N785   1.371       .  A
C784        N789   1.348       .  A
N785        C786   1.365       .  A
C786        N787   1.365       .  A
N787        C788   1.371       .  A
C788        C896   1.460       .  S
C788        N789   1.348       .  A
C790        C833   1.456       .  S
C790        N791   1.369       .  A
C790        N795   1.356       .  A
N791        C792   1.360       .  A
C792        N793   1.355       .  A
N793        C794   1.365       .  A
C794        C897   1.459       .  S
C794        N795   1.354       .  A
C796        C836   1.459       .  S
C796        N797   1.364       .  A
C796        N951   1.363       .  A
N797       C1098   1.349       .  A
C798       N1097   1.349   1_545  A
N799        C800   1.364       .  A
C800        C876   1.460       .  S
C800        N801   1.362   1_556  A
N801        C946   1.363   1_545  A
C802        C900   1.459       .  S
C802        N807   1.354       .  A
N803        C804   1.355       .  A
N805        C806   1.369       .  A
C806        C832   1.456       .  S
C806        N807   1.356       .  A
C808        C898   1.459       .  S
C808       N1109   1.365       .  A
C808        N813   1.354       .  A
N809       C1108   1.365   1_545  A
N809        C810   1.355       .  A
C810       N1111   1.360       .  A
N811       C1110   1.360       .  A
N811        C812   1.369       .  A
C812        C834   1.456       .  S
C812        N813   1.356       .  A
Zn814       O818   1.828       .  S
Zn814       O819   1.896       .  S
Zn814       O823   2.136       .  S
Zn814       O830   2.107       .  S
Zn815       O818   1.828       .  S
Zn815       O820   2.136       .  S
Zn815       O822   2.107       .  S
Zn815       O826   1.896       .  S
Zn816       O818   1.727       .  S
Zn816       O821   1.886       .  S
Zn816       O824   1.886       .  S
Zn816       O827   1.886       .  S
Zn817       O818   1.829       .  S
Zn817       O825   2.136       .  S
Zn817       O828   2.107       .  S
Zn817       O829   1.896       .  S
O819        C831   1.267       .  A
O820        C832   1.291       .  A
O821        C833   1.257       .  A
O822        C831   1.292       .  A
O823        C833   1.291       .  A
O824        C832   1.257       .  A
O825        C834   1.291       .  A
O826        C835   1.267       .  A
O827        C834   1.257       .  A
O828        C835   1.292       .  A
O829        C836   1.267       .  A
O830        C836   1.292       .  A
C835        C839   1.459       .  S
C837        C877   1.460       .  S
C837        N842   1.364       .  A
N838        C839   1.363       .  A
C839        N840   1.364       .  A
N840        C841   1.349       .  A
C843        C899   1.460       .  S
C843       N1144   1.371   1_545  A
C843        N848   1.348       .  A
N844       C1143   1.371       .  A
N844        C845   1.365       .  A
C845       N1146   1.365       .  A
N846       C1145   1.365       .  A
N846        C847   1.371   1_565  A
C847        C873   1.459       .  S
C847        N848   1.348       .  A
C849        C895   1.460       .  S
C849        N854   1.348       .  A
N850        C851   1.365       .  A
N852        C853   1.371   1_455  A
C853        C875   1.459       .  S
C853        N854   1.348       .  A
Zn855       O859   1.817       .  S
Zn855       O860   1.888       .  S
Zn855       O864   2.138       .  S
Zn855       O871   2.113       .  S
Zn856       O859   1.817       .  S
Zn856       O861   2.139       .  S
Zn856       O863   2.113       .  S
Zn856       O867   1.887       .  S
Zn857       O859   1.735       .  S
Zn857       O862   1.906       .  S
Zn857       O865   1.906       .  S
Zn857       O868   1.906       .  S
Zn858       O859   1.817       .  S
Zn858       O866   2.139       .  S
Zn858       O869   2.113       .  S
Zn858       O870   1.887       .  S
O860        C872   1.266       .  A
O861        C873   1.293       .  A
O862        C874   1.257       .  A
O863        C872   1.293       .  A
O864        C874   1.293       .  A
O865        C873   1.257       .  A
O866        C875   1.293       .  A
O867        C876   1.266       .  A
O868        C875   1.257       .  A
O869        C876   1.293       .  A
O870        C877   1.266       .  A
O871        C877   1.293       .  A
Zn878       O883   2.145       .  S
Zn878      O1187   2.114   1_545  S
Zn879       O882   1.736       .  S
Zn879       O890   1.906   1_545  S
Zn880       O885   1.894       .  S
Zn880       O888   2.145       .  S
Zn881       O882   1.818       .  S
Zn881      O1189   1.894       .  S
Zn881       O892   2.146       .  S
Zn881       O893   2.114       .  S
O883        C895   1.293       .  A
O884        C896   1.256       .  A
O885        C897   1.266       .  A
O886        C895   1.256   1_455  A
O887      Zn1178   2.114       .  S
O887        C897   1.296       .  A
O888        C896   1.293       .  A
O889      Zn1181   1.894       .  S
O889        C898   1.266       .  A
O890        C899   1.256   1_565  A
O891        C898   1.296       .  A
O892        C899   1.293       .  A
O893        C900   1.296       .  A
O894        C900   1.266       .  A
C901        C906   1.406       .  A
C901        C991   1.479       .  S
C902       C1053   1.406   1_545  A
C902        H907   1.084       .  S
C903       C1052   1.406   1_565  A
C903        C904   1.406   1_655  A
C903       C1082   1.479       .  S
C904        H908   1.084       .  S
C905       C1056   1.406       .  A
C905       C1098   1.479       .  S
C906       C1055   1.406       .  A
C906        H909   1.084       .  S
C910        C911   1.418       .  A
C910        C915   1.418       .  A
C910        C936   1.511       .  S
C911        C912   1.418       .  A
C911        H916   1.083       .  S
C912        C913   1.418       .  A
C912       C1001   1.510       .  S
C913        C914   1.418       .  A
C913        H917   1.083       .  S
C914        C915   1.418       .  A
C914        C995   1.511       .  S
C915        H918   1.083       .  S
C919        C920   1.413       .  A
C919        C924   1.411       .  A
C919        C942   1.495       .  S
C920        C921   1.411       .  A
C920        H925   1.084       .  S
C921        C922   1.413       .  A
C921        C954   1.495       .  S
C922        C923   1.411       .  A
C922        H926   1.084       .  S
C923        C924   1.413       .  A
C923        C960   1.495       .  S
C924        H927   1.084       .  S
C928        C981   1.460       .  S
C928        N929   1.363       .  A
C928        N933   1.364       .  A
N929       C1080   1.363   1_554  A
C930       C1022   1.460       .  S
C930       N1079   1.363       .  A
C930        N931   1.364       .  A
N931       C1082   1.349       .  A
C932       C1053   1.479       .  S
C932       N1081   1.349       .  A
C932        N933   1.349   1_556  A
C934       C1024   1.459       .  S
C934        N935   1.371       .  A
C934        N939   1.348       .  A
N935        C936   1.365       .  A
C936        N937   1.365       .  A
N937        C938   1.371       .  A
C938       C1046   1.460       .  S
C938        N939   1.348       .  A
C940        C983   1.456       .  S
C940        N941   1.369       .  A
C940        N945   1.356       .  A
N941        C942   1.360       .  A
C942        N943   1.355       .  A
N943        C944   1.365       .  A
C944       C1047   1.459       .  S
C944        N945   1.354       .  A
C946        C986   1.459       .  S
C946        N947   1.364       .  A
C948       C1055   1.479       .  S
C948       N1099   1.349       .  A
N949       C1098   1.349       .  A
N949        C950   1.364       .  A
C950       C1026   1.460       .  S
C950        N951   1.362       .  A
C952       C1050   1.459       .  S
C952        N957   1.354       .  A
N953        C954   1.355       .  A
N955        C956   1.369       .  A
C956        C982   1.456       .  S
C956        N957   1.356       .  A
C958       C1048   1.459       .  S
C958        N963   1.354       .  A
N959        C960   1.355       .  A
N961        C962   1.369   1_545  A
C962        C984   1.456       .  S
C962        N963   1.356       .  A
Zn964       O968   1.828       .  S
Zn964       O969   1.896       .  S
Zn964       O973   2.136       .  S
Zn964       O980   2.107       .  S
Zn965       O968   1.828       .  S
Zn965       O970   2.136       .  S
Zn965       O972   2.107       .  S
Zn965       O976   1.896       .  S
Zn966       O968   1.727       .  S
Zn966       O971   1.886       .  S
Zn966       O974   1.886       .  S
Zn966       O977   1.886       .  S
Zn967       O968   1.829       .  S
Zn967       O975   2.136       .  S
Zn967       O978   2.107       .  S
Zn967       O979   1.896       .  S
O969        C981   1.267       .  A
O970        C982   1.291       .  A
O971        C983   1.257       .  A
O972        C981   1.292       .  A
O973        C983   1.291       .  A
O974        C982   1.257       .  A
O975        C984   1.291       .  A
O976        C985   1.267       .  A
O977        C984   1.257       .  A
O978        C985   1.292       .  A
O979        C986   1.267       .  A
O980        C986   1.292       .  A
C985        C989   1.459       .  S
C987       C1027   1.460       .  S
C987        N992   1.364       .  A
N988        C989   1.363       .  A
C989        N990   1.364       .  A
N990        C991   1.349   1_554  A
C993       C1049   1.460       .  S
C993        N998   1.348       .  A
N994        C995   1.365       .  A
N996        C997   1.371       .  A
C997       C1023   1.459       .  S
C997        N998   1.348       .  A
C999       C1045   1.460       .  S
C999       N1004   1.348       .  A
N1000      C1001   1.365       .  A
N1002      C1003   1.371   1_455  A
C1003      C1025   1.459       .  S
C1003      N1004   1.348       .  A
Zn1005     O1009   1.817       .  S
Zn1005     O1010   1.888       .  S
Zn1005     O1014   2.139       .  S
Zn1005     O1021   2.113       .  S
Zn1006     O1009   1.817       .  S
Zn1006     O1011   2.139       .  S
Zn1006     O1013   2.113       .  S
Zn1006     O1017   1.887       .  S
Zn1007     O1009   1.735       .  S
Zn1007     O1012   1.906       .  S
Zn1007     O1015   1.906       .  S
Zn1007     O1018   1.906       .  S
Zn1008     O1009   1.817       .  S
Zn1008     O1016   2.138       .  S
Zn1008     O1019   2.113       .  S
Zn1008     O1020   1.887       .  S
O1010      C1022   1.266       .  A
O1011      C1023   1.293       .  A
O1012      C1024   1.257       .  A
O1013      C1022   1.293       .  A
O1014      C1024   1.293       .  A
O1015      C1023   1.257       .  A
O1016      C1025   1.293       .  A
O1017      C1026   1.266       .  A
O1018      C1025   1.257       .  A
O1019      C1026   1.293       .  A
O1020      C1027   1.266       .  A
O1021      C1027   1.293       .  A
Zn1028     O1033   2.145       .  S
Zn1029     O1032   1.736       .  S
Zn1029     O1040   1.906       .  S
Zn1030     O1035   1.894       .  S
Zn1030     O1038   2.145       .  S
Zn1031     O1032   1.818       .  S
Zn1031     O1042   2.146       .  S
Zn1031     O1043   2.114       .  S
O1033      C1045   1.293       .  A
O1034      C1046   1.256       .  A
O1035      C1047   1.266       .  A
O1036      C1045   1.256   1_455  A
O1037      C1047   1.296       .  A
O1038      C1046   1.293       .  A
O1039      C1048   1.266   1_545  A
O1040      C1049   1.256       .  A
O1041      C1048   1.296       .  A
O1042      C1049   1.293       .  A
O1043      C1050   1.296       .  A
O1044      C1050   1.266       .  A
C1051      C1056   1.406       .  A
C1051      C1141   1.479       .  S
C1052      H1057   1.084       .  S
C1053      C1054   1.406   1_655  A
C1054      H1058   1.084       .  S
C1056      H1059   1.084       .  S
C1060      C1061   1.418       .  A
C1060      C1065   1.418       .  A
C1060      C1086   1.511       .  S
C1061      C1062   1.418       .  A
C1061      H1066   1.083       .  S
C1062      C1063   1.418       .  A
C1062      C1151   1.510       .  S
C1063      C1064   1.418       .  A
C1063      H1067   1.083       .  S
C1064      C1065   1.418       .  A
C1064      C1145   1.511       .  S
C1065      H1068   1.083       .  S
C1069      C1070   1.413       .  A
C1069      C1074   1.411       .  A
C1069      C1092   1.495       .  S
C1070      C1071   1.411       .  A
C1070      H1075   1.084       .  S
C1071      C1072   1.413       .  A
C1071      C1104   1.495       .  S
C1072      C1073   1.411       .  A
C1072      H1076   1.084       .  S
C1073      C1074   1.413       .  A
C1073      C1110   1.495       .  S
C1074      H1077   1.084       .  S
C1078      C1131   1.460       .  S
C1078      N1079   1.363       .  A
C1078      N1083   1.364       .  A
C1080      C1172   1.460       .  S
C1080      N1081   1.364       .  A
C1082      N1083   1.349       .  A
C1084      C1174   1.459       .  S
C1084      N1085   1.371       .  A
C1084      N1089   1.348       .  A
N1085      C1086   1.365       .  A
C1086      N1087   1.365       .  A
N1087      C1088   1.371       .  A
C1088      C1196   1.460       .  S
C1088      N1089   1.348       .  A
C1090      C1133   1.456       .  S
C1090      N1091   1.369       .  A
C1090      N1095   1.356       .  A
N1091      C1092   1.360       .  A
C1092      N1093   1.355       .  A
N1093      C1094   1.365       .  A
C1094      C1197   1.459       .  S
C1094      N1095   1.354       .  A
C1096      C1136   1.459       .  S
C1096      N1097   1.364       .  A
N1099      C1100   1.364       .  A
C1100      C1176   1.460       .  S
C1100      N1101   1.362   1_556  A
C1102      C1200   1.459       .  S
C1102      N1107   1.354       .  A
N1103      C1104   1.355       .  A
N1105      C1106   1.369       .  A
C1106      C1132   1.456       .  S
C1106      N1107   1.356       .  A
C1108      C1198   1.459       .  S
C1108      N1113   1.354       .  A
N1109      C1110   1.355       .  A
N1111      C1112   1.369   1_545  A
C1112      C1134   1.456       .  S
C1112      N1113   1.356       .  A
Zn1114     O1118   1.828       .  S
Zn1114     O1119   1.896       .  S
Zn1114     O1123   2.136       .  S
Zn1114     O1130   2.107       .  S
Zn1115     O1118   1.828       .  S
Zn1115     O1120   2.136       .  S
Zn1115     O1122   2.107       .  S
Zn1115     O1126   1.896       .  S
Zn1116     O1118   1.727       .  S
Zn1116     O1121   1.886       .  S
Zn1116     O1124   1.886       .  S
Zn1116     O1127   1.886       .  S
Zn1117     O1118   1.829       .  S
Zn1117     O1125   2.136       .  S
Zn1117     O1128   2.107       .  S
Zn1117     O1129   1.896       .  S
O1119      C1131   1.267       .  A
O1120      C1132   1.291       .  A
O1121      C1133   1.257       .  A
O1122      C1131   1.292       .  A
O1123      C1133   1.291       .  A
O1124      C1132   1.257       .  A
O1125      C1134   1.291       .  A
O1126      C1135   1.267       .  A
O1127      C1134   1.257       .  A
O1128      C1135   1.292       .  A
O1129      C1136   1.267       .  A
O1130      C1136   1.292       .  A
C1135      C1139   1.459       .  S
C1137      C1177   1.460       .  S
C1137      N1142   1.364       .  A
N1138      C1139   1.363       .  A
C1139      N1140   1.364       .  A
N1140      C1141   1.349       .  A
C1143      C1199   1.460       .  S
C1143      N1148   1.348       .  A
N1144      C1145   1.365       .  A
N1146      C1147   1.371       .  A
C1147      C1173   1.459       .  S
C1147      N1148   1.348       .  A
C1149      C1195   1.460       .  S
C1149      N1154   1.348       .  A
N1150      C1151   1.365       .  A
N1152      C1153   1.371   1_455  A
C1153      C1175   1.459       .  S
C1153      N1154   1.348       .  A
Zn1155     O1159   1.817       .  S
Zn1155     O1160   1.888       .  S
Zn1155     O1164   2.139       .  S
Zn1155     O1171   2.113       .  S
Zn1156     O1159   1.817       .  S
Zn1156     O1161   2.139       .  S
Zn1156     O1163   2.113       .  S
Zn1156     O1167   1.887       .  S
Zn1157     O1159   1.735       .  S
Zn1157     O1162   1.906       .  S
Zn1157     O1165   1.906       .  S
Zn1157     O1168   1.906       .  S
Zn1158     O1159   1.817       .  S
Zn1158     O1166   2.138       .  S
Zn1158     O1169   2.113       .  S
Zn1158     O1170   1.887       .  S
O1160      C1172   1.266       .  A
O1161      C1173   1.293       .  A
O1162      C1174   1.257       .  A
O1163      C1172   1.293       .  A
O1164      C1174   1.293       .  A
O1165      C1173   1.257       .  A
O1166      C1175   1.293       .  A
O1167      C1176   1.266       .  A
O1168      C1175   1.257       .  A
O1169      C1176   1.293       .  A
O1170      C1177   1.266       .  A
O1171      C1177   1.293       .  A
Zn1178     O1183   2.145       .  S
Zn1179     O1182   1.736       .  S
Zn1179     O1190   1.906       .  S
Zn1180     O1185   1.894       .  S
Zn1180     O1188   2.145       .  S
Zn1181     O1182   1.818       .  S
Zn1181     O1192   2.146       .  S
Zn1181     O1193   2.114       .  S
O1183      C1195   1.293       .  A
O1184      C1196   1.256       .  A
O1185      C1197   1.266       .  A
O1186      C1195   1.256   1_455  A
O1187      C1197   1.296       .  A
O1188      C1196   1.293       .  A
O1189      C1198   1.266   1_545  A
O1190      C1199   1.256       .  A
O1191      C1198   1.296       .  A
O1192      C1199   1.293       .  A
O1193      C1200   1.296       .  A
O1194      C1200   1.266       .  A
