geometry optimzed in LAMMPS
_audit_creation_date              2020-11-30 
_audit_creation_method            'lammps2cif' 
_symmetry_space_group_name_H-M    'P1' 
_symmetry_Int_Tables_number       1 
_symmetry_cell_setting            triclinic 
loop_ 
_symmetry_equiv_pos_as_xyz 
  x,y,z 
_cell_length_a                    29.38521852210151 
_cell_length_b                    29.05637589287343 
_cell_length_c                    32.11653136795163 
_cell_angle_alpha                 90.09306663668809 
_cell_angle_beta                  90.08117509284426 
_cell_angle_gamma                 120.34658709964394 
loop_ 
_atom_site_label 
_atom_site_type_symbol 
_atom_site_fract_x 
_atom_site_fract_y 
_atom_site_fract_z 
_atom_site_charge 
C1          C  0.52490387  0.04894871  0.09534937     0.02890
C2          C  0.52716153  0.04858572  0.13892769    -0.13260
C3          C  0.49966236  0.00030331  0.16156509     0.00390
C4          C  0.47175843  0.95235285  0.13839123    -0.11790
C5          C  0.47220480  0.95268075  0.09478164     0.02880
C6          C  0.49819042  0.00096675  0.07342271    -0.11210
H7          H  0.55059741  0.08651337  0.15430600     0.08470
H8          H  0.44882866  0.91416705  0.15333775     0.06000
H9          H  0.49766365  0.00121298  0.03965740     0.05850
C10         C  0.51704316  0.04717852  0.27548517     0.02890
C11         C  0.51630063  0.04733530  0.23184167    -0.13260
C12         C  0.49976794  0.99996602  0.20863058     0.00390
C13         C  0.48298255  0.95221710  0.23120084    -0.11790
C14         C  0.48174050  0.95167747  0.27481960     0.02880
C15         C  0.49936819  0.99925413  0.29680227    -0.11210
H16         H  0.52828513  0.08494049  0.21685414     0.08470
H17         H  0.47104506  0.91482144  0.21574281     0.06000
H18         H  0.49932456  0.99896372  0.33056232     0.05850
O19         O  0.74347801  0.41156792  0.48333992    -0.82040
C20         C  0.61067926  0.23468749  0.37931978     0.97310
O21         O  0.64955425  0.24139002  0.40072478    -0.71160
O22         O  0.73663147  0.33025921  0.38392090    -0.74750
Al23       Al  0.70049092  0.29903900  0.43394806     1.48980
C24         C  0.76550975  0.37955381  0.37753854     0.92570
O25         O  0.67233023  0.41335940  0.38551220    -0.80970
O26         O  0.59456799  0.33686764  0.48412644    -0.74530
Al27       Al  0.70513526  0.40755566  0.43424001     1.90120
O28         O  0.59091264  0.35216691  0.40013577    -0.73600
O29         O  0.58816491  0.24450412  0.46962685    -0.73450
O30         O  0.59024475  0.26314348  0.38552558    -0.79110
O31         O  0.66849864  0.26361327  0.48408058    -0.77310
O32         O  0.66754279  0.33633239  0.43424512    -1.13440
O33         O  0.75905545  0.34802364  0.46674053    -0.72640
C34         C  0.77038823  0.38913785  0.48767737     0.98080
C35         C  0.62350277  0.39196687  0.37918121     0.94470
Al36       Al  0.59711078  0.30219415  0.43483371     1.55560
O37         O  0.76012257  0.41304644  0.39887200    -0.77260
C38         C  0.61969387  0.23605070  0.49059940     0.98640
C39         C  0.61761800  0.38656967  0.49003497     0.93520
O40         O  0.65805494  0.41712687  0.46911585    -0.82580
C41         C  0.51644492  0.46981048  0.09610643     0.02890
C42         C  0.51509452  0.46825415  0.13972867    -0.13260
C43         C  0.49618293  0.49675597  0.16273719     0.00390
C44         C  0.47779516  0.52603162  0.14023256    -0.11790
C45         C  0.47731123  0.52591949  0.09658184     0.02880
C46         C  0.49641884  0.49760335  0.07479470    -0.11210
H47         H  0.52965158  0.44519432  0.15505030     0.08470
H48         H  0.46477371  0.55020206  0.15598556     0.06000
H49         H  0.49629826  0.49764890  0.04102798     0.05850
C50         C  0.53058825  0.48399875  0.27575560     0.02890
C51         C  0.53014996  0.48400604  0.23212453    -0.13260
C52         C  0.49684671  0.49710952  0.20965125     0.00390
C53         C  0.46434079  0.51078120  0.23267715    -0.11790
C54         C  0.46622763  0.51294385  0.27635966     0.02880
C55         C  0.49941859  0.49947144  0.29764212    -0.11310
H56         H  0.55659909  0.47416890  0.21642154     0.08470
H57         H  0.43679940  0.51939881  0.21727039     0.06000
H58         H  0.50063503  0.50051798  0.33139307     0.05850
O59         O  0.26026284  0.59289944  0.48716109    -0.82040
C60         C  0.38747976  0.76385278  0.37742732     0.97310
O61         O  0.34923878  0.75765440  0.39928874    -0.71160
O62         O  0.26162067  0.66744353  0.38548573    -0.74750
Al63       Al  0.29993280  0.70160539  0.43424413     1.48980
C64         C  0.23211270  0.61781014  0.38111609     0.92570
O65         O  0.32604330  0.58391499  0.38873502    -0.80970
O66         O  0.40913599  0.66698027  0.48305805    -0.74530
Al67       Al  0.29562671  0.59322283  0.43755666     1.90120
O68         O  0.40799837  0.64722082  0.39939994    -0.73600
O69         O  0.41396475  0.75769435  0.46730544    -0.73450
O70         O  0.40789768  0.73538459  0.38348186    -0.79110
O71         O  0.33420685  0.73983929  0.48310021    -0.77310
O72         O  0.33313469  0.66442902  0.43495217    -1.13440
O73         O  0.24272489  0.65452473  0.46893234    -0.72640
C74         C  0.23414501  0.61604650  0.49205634     0.98080
C75         C  0.37443620  0.60568418  0.38048284     0.94470
Al76       Al  0.40356487  0.69872897  0.43344022     1.55560
O77         O  0.23890569  0.58555181  0.40289673    -0.77260
C78         C  0.38334491  0.76660910  0.48892963     0.98640
C79         C  0.38535634  0.61806924  0.49175415     0.93520
O80         O  0.34400402  0.58558681  0.47244276    -0.82580
C81         C  0.05010092  0.52562220  0.09718958     0.02890
C82         C  0.00356343  0.50909015  0.07502130    -0.13260
C83         C  0.95488583  0.48470802  0.09542542     0.00390
C84         C  0.95360467  0.47954449  0.13899471    -0.11790
C85         C  0.00057172  0.49800251  0.16262551     0.02880
C86         C  0.04860600  0.51936323  0.14040079    -0.11210
H87         H  0.00513394  0.51359078  0.04144539     0.08470
H88         H  0.91549386  0.45983159  0.15352975     0.06000
H89         H  0.08554539  0.53099020  0.15572265     0.05850
C90         C  0.04683824  0.52071967  0.27677612     0.02890
C91         C  0.99903307  0.49282141  0.29793183    -0.13260
C92         C  0.95167036  0.46545009  0.27584576     0.00390
C93         C  0.95216635  0.46581630  0.23217140    -0.11790
C94         C  0.99984839  0.49520436  0.20972705     0.02880
C95         C  0.04702889  0.52336407  0.23322012    -0.11210
H96         H  0.99868875  0.49273172  0.33169361     0.08470
H97         H  0.91467676  0.44283021  0.21669917     0.06000
H98         H  0.08459657  0.54869693  0.21864478     0.05850
C99         C  0.10602232  0.59034223  0.32695798    -0.20550
C100        C  0.09675129  0.54790715  0.30067693    -0.07120
C101        C  0.13326502  0.52983569  0.29967313     0.13750
C102        C  0.17800390  0.55434745  0.32548316    -0.20600
C103        C  0.18724982  0.59675855  0.35184996    -0.07120
C104        C  0.15089816  0.61513135  0.35253888     0.13740
C105        C  0.15768760  0.65888746  0.38172967    -0.23950
H106        H  0.07746650  0.60349802  0.32789811     0.15030
H107        H  0.20562172  0.53997468  0.32549427     0.15060
C108        C  0.12402950  0.48337812  0.27270481    -0.23900
H109        H  0.12418783  0.66627416  0.37953977     0.05270
H110        H  0.19420872  0.69667899  0.37391862     0.08500
H111        H  0.15996130  0.64762388  0.41436850     0.08500
H112        H  0.12357439  0.49319202  0.23939625     0.08480
H113        H  0.08570642  0.44770150  0.28083746     0.08480
H114        H  0.15547340  0.47324381  0.27693302     0.05260
C115        C  0.16850219  0.54285162  0.03693085    -0.20550
C116        C  0.19082861  0.59590008  0.02316327    -0.07120
C117        C  0.16893524  0.62695017  0.03741856     0.13750
C118        C  0.12401662  0.60320930  0.06280514    -0.20600
C119        C  0.10057979  0.54971709  0.07453034    -0.07120
C120        C  0.12345695  0.51936941  0.06224509     0.13740
C121        C  0.09929333  0.46178749  0.07479871    -0.23950
H122        H  0.18503300  0.51886651  0.02655545     0.15030
H123        H  0.10617209  0.62614142  0.07284756     0.15060
C124        C  0.19226497  0.68507002  0.52648335    -0.23900
H125        H  0.12179314  0.44357832  0.06222881     0.05270
H126        H  0.05824598  0.43863566  0.06282831     0.08500
H127        H  0.09884324  0.45876147  0.10926594     0.08500
H128        H  0.18739159  0.68949495  0.49273228     0.08480
H129        H  0.23470666  0.70753777  0.53507301     0.08480
H130        H  0.17246707  0.70348617  0.54338061     0.05260
C131        C  0.44595368  0.58432827  0.29118642    -0.20550
C132        C  0.43613602  0.53272698  0.29991573    -0.07120
C133        C  0.40162419  0.50354226  0.33291407     0.13750
C134        C  0.38048560  0.52792788  0.35768654    -0.20600
C135        C  0.39273859  0.58046409  0.35028542    -0.07120
C136        C  0.42480141  0.60865173  0.31610278     0.13740
C137        C  0.43647632  0.66414686  0.30576886    -0.23950
H138        H  0.47202326  0.60650616  0.26572466     0.15030
H139        H  0.35534783  0.50621180  0.38375222     0.15060
C140        C  0.38585982  0.44668654  0.34278102    -0.23900
H141        H  0.46037963  0.67945073  0.27697576     0.05270
H142        H  0.45891754  0.69194917  0.33153958     0.08500
H143        H  0.39895992  0.66396034  0.30088878     0.08500
H144        H  0.40058466  0.44483159  0.37423815     0.08480
H145        H  0.40101280  0.42909460  0.31995907     0.08480
H146        H  0.34219025  0.42157320  0.34248278     0.05260
C147        C  0.40117443  0.53524579  0.07591137    -0.20550
C148        C  0.45543224  0.55421716  0.07326323    -0.07120
C149        C  0.48709192  0.59758599  0.04683287     0.13750
C150        C  0.46319069  0.61923826  0.02212057    -0.20600
C151        C  0.40838775  0.59802550  0.02268554    -0.07120
C152        C  0.37708643  0.55640394  0.05075608     0.13740
C153        C  0.31859454  0.53464944  0.05480918    -0.23950
H154        H  0.37731155  0.50246348  0.09675343     0.15030
H155        H  0.48721812  0.65154356  0.50094914     0.15060
C156        C  0.54604220  0.62134107  0.04480633    -0.23900
H157        H  0.30124712  0.50492544  0.08028573     0.05270
H158        H  0.29804539  0.51444799  0.02556475     0.08500
H159        H  0.31105441  0.56764262  0.06184965     0.08500
H160        H  0.55584493  0.59171234  0.03255529     0.08480
H161        H  0.56331151  0.63422284  0.07640018     0.08480
H162        H  0.56481124  0.65665907  0.52403005     0.05260
C163        C  0.54953628  0.37357449  0.04252641    -0.20550
C164        C  0.59527564  0.40912455  0.02016529    -0.07120
C165        C  0.61594314  0.46493241  0.02513900     0.13750
C166        C  0.58981023  0.48286776  0.05115715    -0.20600
C167        C  0.54364809  0.44723890  0.07225618    -0.07120
C168        C  0.52335629  0.39195781  0.06824553     0.13740
C169        C  0.47297643  0.35236787  0.08959374    -0.23950
H170        H  0.53315715  0.33096744  0.03909584     0.15030
H171        H  0.60492757  0.52532152  0.05454845     0.15060
C172        C  0.66465196  0.50650658  0.50283661    -0.23900
H173        H  0.46161180  0.31061586  0.08191165     0.05270
H174        H  0.44040787  0.35877512  0.07959609     0.08500
H175        H  0.47784055  0.35725763  0.12385704     0.08500
H176        H  0.65812106  0.50238534  0.46864051     0.08480
H177        H  0.69897983  0.50226437  0.01137281     0.08480
H178        H  0.67475183  0.54769418  0.01129467     0.05260
C179        C  0.62152857  0.47055898  0.35271919    -0.20550
C180        C  0.60390846  0.41598456  0.34897583    -0.07120
C181        C  0.56591092  0.38527518  0.31843641     0.13750
C182        C  0.54483634  0.40957420  0.29346262    -0.20600
C183        C  0.56030147  0.46351284  0.29875650    -0.07120
C184        C  0.60007570  0.49476273  0.32811352     0.13740
C185        C  0.62084554  0.55351069  0.33429066    -0.23950
H186        H  0.65103582  0.49415000  0.37600851     0.15030
H187        H  0.51455727  0.38585228  0.27074856     0.15060
C188        C  0.54783479  0.32713268  0.31190068    -0.23900
H189        H  0.66420846  0.57583364  0.32957385     0.05270
H190        H  0.61222214  0.56074819  0.36651196     0.08500
H191        H  0.60361965  0.56984596  0.31220884     0.08500
H192        H  0.52737137  0.30392612  0.34010037     0.08480
H193        H  0.58235038  0.32244138  0.30523602     0.08480
H194        H  0.51989506  0.30998468  0.28533005     0.05260
C195        C  0.84027088  0.37432807  0.34816454    -0.20550
C196        C  0.80917148  0.39839536  0.34743973    -0.07120
C197        C  0.82275800  0.44177458  0.32038902     0.13750
C198        C  0.86848070  0.46140309  0.29606738    -0.20600
C199        C  0.90117771  0.43928034  0.29873222    -0.07120
C200        C  0.88647480  0.39461564  0.32447474     0.13740
C201        C  0.91926745  0.36820202  0.32690473    -0.23950
H202        H  0.82955353  0.34083024  0.36873245     0.15030
H203        H  0.87976896  0.49530935  0.27582912     0.15060
C204        C  0.78893988  0.46695786  0.31658190    -0.23900
H205        H  0.90082935  0.33253286  0.34733219     0.05270
H206        H  0.95886059  0.39632214  0.33978830     0.08500
H207        H  0.92357663  0.35528031  0.29532924     0.08500
H208        H  0.78883844  0.48626824  0.34636799     0.08480
H209        H  0.74795398  0.43603821  0.30830170     0.08480
H210        H  0.80376686  0.49809057  0.29205140     0.05260
C211        C  0.82091363  0.44737168  0.04793725    -0.20550
C212        C  0.81678155  0.41194339  0.01621290    -0.07120
C213        C  0.85862203  0.40130777  0.51096191     0.13750
C214        C  0.90164419  0.42445624  0.03831481    -0.20600
C215        C  0.90573833  0.45960752  0.06998854    -0.07120
C216        C  0.86507055  0.47178653  0.07460341     0.13740
C217        C  0.86907997  0.51240474  0.10590684    -0.23950
H218        H  0.78970530  0.45657633  0.05160913     0.15030
H219        H  0.93314297  0.41565892  0.03454190     0.15060
C220        C  0.86015541  0.36768445  0.47565391    -0.23900
H221        H  0.83599633  0.52029035  0.10261841     0.05270
H222        H  0.90648219  0.55067636  0.10126985     0.08500
H223        H  0.86763977  0.49802147  0.13805072     0.08500
H224        H  0.85658361  0.38403915  0.44538063     0.08480
H225        H  0.82786812  0.32571082  0.47907897     0.08480
H226        H  0.89774328  0.36727978  0.47503690     0.05260
C227        C  0.46602606  0.83985913  0.34540050    -0.20550
C228        C  0.41085136  0.80766648  0.34677378    -0.07120
C229        C  0.37949265  0.82070283  0.32148363     0.13750
C230        C  0.40407962  0.86692176  0.29697472    -0.20600
C231        C  0.45894068  0.90069260  0.29766308    -0.07120
C232        C  0.49043590  0.88659838  0.32144826     0.13740
C233        C  0.54964648  0.92093943  0.32167654    -0.23950
H234        H  0.49003878  0.82970900  0.36461679     0.15030
H235        H  0.38029279  0.87779512  0.27817250     0.15060
C236        C  0.32027666  0.78589037  0.31978627    -0.23900
H237        H  0.56830279  0.90341016  0.34115973     0.05270
H238        H  0.56158744  0.96102259  0.33437199     0.08500
H239        H  0.56482121  0.92511627  0.28943478     0.08500
H240        H  0.30276130  0.78606173  0.35030784     0.08480
H241        H  0.30936285  0.74444149  0.31146088     0.08480
H242        H  0.30267161  0.80017955  0.29613976     0.05260
C243        C  0.59393926  0.13302400  0.29725173    -0.20550
C244        C  0.53936940  0.09781938  0.29901087    -0.07120
C245        C  0.50782857  0.11041612  0.32422454     0.13750
C246        C  0.53203314  0.15705392  0.34851446    -0.20600
C247        C  0.58704081  0.19065321  0.34872820    -0.07120
C248        C  0.61831603  0.17918903  0.32200674     0.13740
C249        C  0.67719473  0.21572268  0.31898410    -0.23950
H250        H  0.61774281  0.12338802  0.27732882     0.15030
H251        H  0.50811011  0.16614832  0.36876528     0.15060
C252        C  0.44877837  0.07480679  0.32545393    -0.23900
H253        H  0.69464956  0.20239334  0.29447152     0.05270
H254        H  0.69643664  0.21642383  0.34889543     0.08500
H255        H  0.68624313  0.25669577  0.31111219     0.08500
H256        H  0.43823139  0.03497323  0.33771975     0.08480
H257        H  0.43232579  0.07028450  0.29358123     0.08480
H258        H  0.43006358  0.09149220  0.34579721     0.05260
C259        C  0.47423406  0.87502423  0.06551950    -0.20550
C260        C  0.44669480  0.90226917  0.07103479    -0.07120
C261        C  0.39705740  0.88288175  0.05207344     0.13750
C262        C  0.37663180  0.83730478  0.02679908    -0.20600
C263        C  0.40516154  0.81115565  0.01941431    -0.07120
C264        C  0.45429803  0.82975341  0.03980425     0.13740
C265        C  0.48578004  0.80209327  0.03522336    -0.23950
H266        H  0.51223259  0.89019906  0.08058733     0.15030
H267        H  0.33892085  0.82319327  0.01153963     0.15060
C268        C  0.36596653  0.91062946  0.05822507    -0.23900
H269        H  0.52098239  0.81993522  0.05587742     0.05270
H270        H  0.50010190  0.80574948  0.50277450     0.08500
H271        H  0.46098461  0.75934858  0.04361094     0.08500
H272        H  0.38853016  0.95192009  0.04603239     0.08480
H273        H  0.35824693  0.91196830  0.09191074     0.08480
H274        H  0.32744941  0.88972364  0.04171699     0.05260
C275        C  0.60412750  0.12561078  0.06452357    -0.20550
C276        C  0.54993432  0.09969805  0.07220568    -0.07120
C277        C  0.51972102  0.12075463  0.05597337     0.13750
C278        C  0.54418851  0.16654232  0.03109563    -0.20600
C279        C  0.59828219  0.19172181  0.02149495    -0.07120
C280        C  0.62889504  0.17125988  0.03928493     0.13740
C281        C  0.68713931  0.19563872  0.03117295    -0.23950
H282        H  0.62682408  0.10896116  0.07738906     0.15030
H283        H  0.52038270  0.18192920  0.01829294     0.15060
C284        C  0.46148893  0.09457051  0.06466256    -0.23900
H285        H  0.70392281  0.17394788  0.04761637     0.05270
H286        H  0.70867084  0.23754266  0.04241539     0.08500
H287        H  0.69415092  0.19410559  0.49737256     0.08500
H288        H  0.45486490  0.09302840  0.09878710     0.08480
H289        H  0.44074871  0.05342346  0.05188689     0.08480
H290        H  0.44387380  0.11672256  0.05024680     0.05260
C291        C  0.52489946  0.04894929  0.59535004     0.02890
C292        C  0.52715750  0.04858619  0.63892836    -0.13260
C293        C  0.49965823  0.00030375  0.66156570     0.00390
C294        C  0.47175361  0.95235340  0.63839185    -0.11790
C295        C  0.47219983  0.95268139  0.59478228     0.02880
C296        C  0.49818549  0.00096736  0.57342336    -0.11210
H297        H  0.55059394  0.08651372  0.65430673     0.08470
H298        H  0.44882388  0.91416760  0.65333839     0.06000
H299        H  0.49765868  0.00121359  0.53965806     0.05850
C300        C  0.51704173  0.04717839  0.77548597     0.02890
C301        C  0.51629791  0.04733534  0.73184249    -0.13260
C302        C  0.49976492  0.99996623  0.70863114     0.00390
C303        C  0.48298051  0.95221727  0.73120109    -0.11790
C304        C  0.48173967  0.95167742  0.77481988     0.02880
C305        C  0.49936765  0.99925396  0.79680281    -0.11210
H306        H  0.52828167  0.08494049  0.71685516     0.08470
H307        H  0.47104287  0.91482175  0.71574276     0.06000
H308        H  0.49932484  0.99896342  0.83056286     0.05850
O309        O  0.74347804  0.41156835  0.98334006    -0.82040
C310        C  0.61067903  0.23468762  0.87932028     0.97310
O311        O  0.64955440  0.24139047  0.90072491    -0.71160
O312        O  0.73663111  0.33025991  0.88392058    -0.74750
Al313      Al  0.70049124  0.29903966  0.93394793     1.48980
C314        C  0.76550947  0.37955454  0.87753846     0.92570
O315        O  0.67232959  0.41335942  0.88551260    -0.80970
O316        O  0.59456828  0.33686767  0.98412729    -0.74530
Al317      Al  0.70513500  0.40755598  0.93424029     1.90120
O318        O  0.59091213  0.35216678  0.90013651    -0.73600
O319        O  0.58816562  0.24450429  0.96962755    -0.73450
O320        O  0.59024442  0.26314347  0.88552630    -0.79110
O321        O  0.66849970  0.26361399  0.98408055    -0.77310
O322        O  0.66754280  0.33633272  0.93424541    -1.13440
O323        O  0.75905600  0.34802458  0.96674009    -0.72640
C324        C  0.77038861  0.38913858  0.98767715     0.98080
C325        C  0.62350208  0.39196665  0.87918173     0.94470
Al326      Al  0.59711080  0.30219419  0.93483443     1.55560
O327        O  0.76012231  0.41304705  0.89887210    -0.77260
C328        C  0.61969504  0.23605104  0.99059964     0.98640
C329        C  0.61761808  0.38656970  0.99003573     0.93520
O330        O  0.65805470  0.41712700  0.96911633    -0.82580
C331        C  0.51644490  0.46981090  0.59610531     0.02890
C332        C  0.51509445  0.46825414  0.63972754    -0.13260
C333        C  0.49618283  0.49675571  0.66273633     0.00390
C334        C  0.47779526  0.52603174  0.64023197    -0.11790
C335        C  0.47731142  0.52592012  0.59658125     0.02880
C336        C  0.49641899  0.49760412  0.57479384    -0.11210
H337        H  0.52965144  0.44519413  0.65504900     0.08470
H338        H  0.46477385  0.55020207  0.65598520     0.06000
H339        H  0.49629842  0.49764998  0.54102712     0.05850
C340        C  0.53058750  0.48399733  0.77575474     0.02890
C341        C  0.53014939  0.48400485  0.73212365    -0.13260
C342        C  0.49684625  0.49710854  0.70965038     0.00390
C343        C  0.46434007  0.51077982  0.73267629    -0.11790
C344        C  0.46622670  0.51294221  0.77635879     0.02880
C345        C  0.49941768  0.49946983  0.79764124    -0.11310
H346        H  0.55659861  0.47416784  0.71642063     0.08470
H347        H  0.43679867  0.51939742  0.71726953     0.06000
H348        H  0.50063405  0.50051631  0.83139220     0.05850
O349        O  0.26026340  0.59289897  0.98716088    -0.82040
C350        C  0.38748062  0.76385227  0.87742704     0.97310
O351        O  0.34923987  0.75765401  0.89928868    -0.71160
O352        O  0.26162139  0.66744348  0.88548577    -0.74750
Al353      Al  0.29993392  0.70160511  0.93424409     1.48980
C354        C  0.23211324  0.61781013  0.88111604     0.92570
O355        O  0.32604319  0.58391393  0.88873463    -0.80970
O356        O  0.40913683  0.66697895  0.98305711    -0.74530
Al357      Al  0.29562701  0.59322215  0.93755634     1.90120
O358        O  0.40799843  0.64721967  0.89939894    -0.73600
O359        O  0.41396617  0.75769328  0.96730510    -0.73450
O360        O  0.40789844  0.73538393  0.88348133    -0.79110
O361        O  0.33420842  0.73983878  0.98310009    -0.77310
O362        O  0.33313542  0.66442835  0.93495181    -1.13440
O363        O  0.24272602  0.65452471  0.96893239    -0.72640
C364        C  0.23414586  0.61604631  0.99205627     0.98080
C365        C  0.37443596  0.60568297  0.88048209     0.94470
Al366      Al  0.40356562  0.69872793  0.93343954     1.55560
O367        O  0.23890609  0.58555160  0.90289653    -0.77260
C368        C  0.38334651  0.76660811  0.98892946     0.98640
C369        C  0.38535675  0.61806800  0.99175347     0.93520
O370        O  0.34400415  0.58558574  0.97244232    -0.82580
C371        C  0.05010033  0.52562202  0.59718986     0.02890
C372        C  0.00356274  0.50908964  0.57502165    -0.13260
C373        C  0.95488522  0.48470745  0.59542587     0.00390
C374        C  0.95360424  0.47954419  0.63899518    -0.11790
C375        C  0.00057141  0.49800259  0.66262591     0.02880
C376        C  0.04860561  0.51936335  0.64040108    -0.11210
H377        H  0.00513314  0.51359007  0.54144573     0.08470
H378        H  0.91549347  0.45983122  0.65353029     0.06000
H379        H  0.08554511  0.53099060  0.65572287     0.05850
C380        C  0.04683843  0.52072027  0.77677642     0.02890
C381        C  0.99903332  0.49282220  0.79793225    -0.13260
C382        C  0.95167053  0.46545091  0.77584628     0.00390
C383        C  0.95216636  0.46581690  0.73217193    -0.11790
C384        C  0.99984830  0.49520474  0.70972746     0.02880
C385        C  0.04702891  0.52336451  0.73322042    -0.11210
H386        H  0.99868911  0.49273262  0.83169403     0.08470
H387        H  0.91467669  0.44283081  0.71669982     0.06000
H388        H  0.08459654  0.54869726  0.71864498     0.05850
C389        C  0.10602273  0.59034261  0.82695838    -0.20550
C390        C  0.09675160  0.54790767  0.80067711    -0.07120
C391        C  0.13326535  0.52983624  0.79967300     0.13750
C392        C  0.17800432  0.55434786  0.82548294    -0.20600
C393        C  0.18725032  0.59675878  0.85184997    -0.07120
C394        C  0.15089867  0.61513158  0.85253920     0.13740
C395        C  0.15768821  0.65888751  0.88173024    -0.23950
H396        H  0.07746691  0.60349838  0.82789875     0.15030
H397        H  0.20562215  0.53997509  0.82549382     0.15060
C398        C  0.12402975  0.48337880  0.77270447    -0.23900
H399        H  0.12418846  0.66627425  0.87954055     0.05270
H400        H  0.19420933  0.69667908  0.87391926     0.08500
H401        H  0.15996200  0.64762370  0.91436898     0.08500
H402        H  0.12357459  0.49319288  0.73939596     0.08480
H403        H  0.08570669  0.44770215  0.78083709     0.08480
H404        H  0.15547364  0.47324445  0.77693250     0.05260
C405        C  0.16850153  0.54285171  0.53693091    -0.20550
C406        C  0.19082780  0.59590017  0.52316335    -0.07120
C407        C  0.16893437  0.62695016  0.53741873     0.13750
C408        C  0.12401583  0.60320920  0.56280536    -0.20600
C409        C  0.10057913  0.54971700  0.57453054    -0.07120
C410        C  0.12345635  0.51936941  0.56224521     0.13740
C411        C  0.09929289  0.46178750  0.57479884    -0.23950
H412        H  0.18503240  0.51886668  0.52655545     0.15030
H413        H  0.10617124  0.62614125  0.57284786     0.15060
C414        C  0.19226594  0.68507003  0.02648314    -0.23900
H415        H  0.12179275  0.44357842  0.56222888     0.05270
H416        H  0.05824552  0.43863559  0.56282850     0.08500
H417        H  0.09884288  0.45876151  0.60926607     0.08500
H418        H  0.18739264  0.68949495  0.99273206     0.08480
H419        H  0.23470762  0.70753773  0.03507286     0.08480
H420        H  0.17246806  0.70348625  0.04338035     0.05260
C421        C  0.44595252  0.58432649  0.79118532    -0.20550
C422        C  0.43613506  0.53272532  0.79991482    -0.07120
C423        C  0.40162344  0.50354074  0.83291330     0.13750
C424        C  0.38048500  0.52792647  0.85768581    -0.20600
C425        C  0.39273790  0.58046263  0.85028454    -0.07120
C426        C  0.42480036  0.60865004  0.81610168     0.13740
C427        C  0.43647502  0.66414503  0.80576755    -0.23950
H428        H  0.47202190  0.60650426  0.76572342     0.15030
H429        H  0.35534747  0.50621055  0.88375164     0.15060
C430        C  0.38585916  0.44668507  0.84278038    -0.23900
H431        H  0.46037804  0.67944870  0.77697429     0.05270
H432        H  0.45891644  0.69194759  0.83153808     0.08500
H433        H  0.39895851  0.66395835  0.80088763     0.08500
H434        H  0.40058423  0.44483028  0.87423746     0.08480
H435        H  0.40101198  0.42909303  0.81995838     0.08480
H436        H  0.34218959  0.42157172  0.84248234     0.05260
C437        C  0.40117454  0.53524665  0.57591140    -0.20550
C438        C  0.45543232  0.55421797  0.57326297    -0.07120
C439        C  0.48709186  0.59758702  0.54683274     0.13750
C440        C  0.46319050  0.61923953  0.52212083    -0.20600
C441        C  0.40838757  0.59802679  0.52268606    -0.07120
C442        C  0.37708642  0.55640502  0.55075650     0.13740
C443        C  0.31859455  0.53465053  0.55480986    -0.23950
H444        H  0.37731176  0.50246420  0.59675338     0.15030
H445        H  0.48721844  0.65154216  0.00094882     0.15060
C446        C  0.54604212  0.62134207  0.54480591    -0.23900
H447        H  0.30124725  0.50492633  0.58028629     0.05270
H448        H  0.29804524  0.51444932  0.52556542     0.08500
H449        H  0.31105449  0.56764367  0.56185068     0.08500
H450        H  0.55584473  0.59171341  0.53255452     0.08480
H451        H  0.56331163  0.63422357  0.57639974     0.08480
H452        H  0.56481142  0.65665791  0.02403030     0.05260
C453        C  0.54953596  0.37357469  0.54252531    -0.20550
C454        C  0.59527543  0.40912465  0.52016428    -0.07120
C455        C  0.61594292  0.46493254  0.52513781     0.13750
C456        C  0.58980999  0.48286800  0.55115582    -0.20600
C457        C  0.54364783  0.44723922  0.57225486    -0.07120
C458        C  0.52335593  0.39195810  0.56824426     0.13740
C459        C  0.47297594  0.35236823  0.58959235    -0.23950
H460        H  0.53315679  0.33096762  0.53909481     0.15030
H461        H  0.60492737  0.52532177  0.55454705     0.15060
C462        C  0.66465217  0.50650655  0.00283784    -0.23900
H463        H  0.46161122  0.31061620  0.58191026     0.05270
H464        H  0.44040750  0.35877562  0.57959461     0.08500
H465        H  0.47783991  0.35725791  0.62385566     0.08500
H466        H  0.65812118  0.50238557  0.96864175     0.08480
H467        H  0.69897966  0.50226454  0.51137177     0.08480
H468        H  0.67475153  0.54769424  0.51129321     0.05260
C469        C  0.62152761  0.47055839  0.85271906    -0.20550
C470        C  0.60390760  0.41598395  0.84897610    -0.07120
C471        C  0.56591037  0.38527432  0.81843656     0.13750
C472        C  0.54483593  0.40957308  0.79346229    -0.20600
C473        C  0.56030092  0.46351173  0.79875579    -0.07120
C474        C  0.60007491  0.49476189  0.82811290     0.13740
C475        C  0.62084462  0.55350988  0.83428966    -0.23950
H476        H  0.65103470  0.49414965  0.87600841     0.15030
H477        H  0.51455703  0.38585094  0.77074817     0.15060
C478        C  0.54783445  0.32713181  0.81190121    -0.23900
H479        H  0.66420758  0.57583284  0.82957310     0.05270
H480        H  0.61222091  0.56074763  0.86651080     0.08500
H481        H  0.60361889  0.56984494  0.81220748     0.08500
H482        H  0.52737089  0.30392545  0.84010093     0.08480
H483        H  0.58235016  0.32244059  0.80523690     0.08480
H484        H  0.51989491  0.30998354  0.78533048     0.05260
C485        C  0.84027073  0.37432888  0.84816476    -0.20550
C486        C  0.80917137  0.39839621  0.84743984    -0.07120
C487        C  0.82275814  0.44177560  0.82038928     0.13750
C488        C  0.86848101  0.46140419  0.79606784    -0.20600
C489        C  0.90117793  0.43928134  0.79873278    -0.07120
C490        C  0.88647483  0.39461654  0.82447520     0.13740
C491        C  0.91926744  0.36820289  0.82690532    -0.23950
H492        H  0.82955320  0.34083094  0.86873260     0.15030
H493        H  0.87976943  0.49531053  0.77582964     0.15060
C494        C  0.78894011  0.46695897  0.81658208    -0.23900
H495        H  0.90082919  0.33253366  0.84733271     0.05270
H496        H  0.95886050  0.39632296  0.83978905     0.08500
H497        H  0.92357683  0.35528128  0.79532985     0.08500
H498        H  0.78883843  0.48626913  0.84636823     0.08480
H499        H  0.74795426  0.43603940  0.80830164     0.08480
H500        H  0.80376732  0.49809186  0.79205172     0.05260
C501        C  0.82091298  0.44737080  0.54793762    -0.20550
C502        C  0.81678101  0.41194254  0.51621328    -0.07120
C503        C  0.85862256  0.40130862  0.01096141     0.13750
C504        C  0.90164357  0.42445538  0.53831538    -0.20600
C505        C  0.90573765  0.45960670  0.56998906    -0.07120
C506        C  0.86506982  0.47178566  0.57460385     0.13740
C507        C  0.86907913  0.51240384  0.60590727    -0.23950
H508        H  0.78970463  0.45657544  0.55160941     0.15030
H509        H  0.93314239  0.41565810  0.53454253     0.15060
C510        C  0.86015585  0.36768527  0.97565340    -0.23900
H511        H  0.83599547  0.52028940  0.60261877     0.05270
H512        H  0.90648133  0.55067548  0.60127032     0.08500
H513        H  0.86763887  0.49802054  0.63805114     0.08500
H514        H  0.85658398  0.38403995  0.94538013     0.08480
H515        H  0.82786856  0.32571164  0.97907851     0.08480
H516        H  0.89774370  0.36728058  0.97503632     0.05260
C517        C  0.46602657  0.83985890  0.84540003    -0.20550
C518        C  0.41085192  0.80766593  0.84677345    -0.07120
C519        C  0.37949286  0.82070204  0.82148352     0.13750
C520        C  0.40407942  0.86692114  0.79697479    -0.20600
C521        C  0.45894041  0.90069238  0.79766310    -0.07120
C522        C  0.49043602  0.88659832  0.82144793     0.13740
C523        C  0.54964656  0.92093967  0.82167599    -0.23950
H524        H  0.49003957  0.82970892  0.86461611     0.15030
H525        H  0.38029229  0.87779433  0.77817278     0.15060
C526        C  0.32027690  0.78588918  0.81978622    -0.23900
H527        H  0.56830320  0.90341045  0.84115885     0.05270
H528        H  0.56158740  0.96102269  0.83437168     0.08500
H529        H  0.56482109  0.92511683  0.78943413     0.08500
H530        H  0.30276152  0.78606024  0.85030785     0.08480
H531        H  0.30936342  0.74444043  0.81146069     0.08480
H532        H  0.30267157  0.80017822  0.79613984     0.05260
C533        C  0.59393810  0.13302378  0.79725224    -0.20550
C534        C  0.53936828  0.09781913  0.79901182    -0.07120
C535        C  0.50782775  0.11041582  0.82422589     0.13750
C536        C  0.53203259  0.15705372  0.84851569    -0.20600
C537        C  0.58704025  0.19065312  0.84872892    -0.07120
C538        C  0.61831516  0.17918888  0.82200715     0.13740
C539        C  0.67719381  0.21572257  0.81898405    -0.23950
H540        H  0.61774140  0.12338780  0.77732903     0.15030
H541        H  0.50810980  0.16614811  0.86876679     0.15060
C542        C  0.44877760  0.07480631  0.82545586    -0.23900
H543        H  0.69464836  0.20239315  0.79447129     0.05270
H544        H  0.69643611  0.21642387  0.84889522     0.08500
H545        H  0.68624206  0.25669561  0.81111214     0.08500
H546        H  0.43823100  0.03497281  0.83772157     0.08480
H547        H  0.43232447  0.07028393  0.79358335     0.08480
H548        H  0.43006303  0.09149162  0.84579949     0.05260
C549        C  0.47423365  0.87502900  0.56551689    -0.20550
C550        C  0.44669097  0.90226987  0.57103544    -0.07120
C551        C  0.39705139  0.88287878  0.55207711     0.13750
C552        C  0.37662678  0.83730208  0.52680246    -0.20600
C553        C  0.40515961  0.81115679  0.51941451    -0.07120
C554        C  0.45429863  0.82975847  0.53980145     0.13740
C555        C  0.48578474  0.80210311  0.53521713    -0.23950
H556        H  0.51223397  0.89020682  0.58058237     0.15030
H557        H  0.33891398  0.82318777  0.51154537     0.15060
C558        C  0.36595733  0.91062255  0.55823210    -0.23900
H559        H  0.52098889  0.81994769  0.55586929     0.05270
H560        H  0.50009953  0.80573804  0.00278164     0.08500
H561        H  0.46099317  0.75935802  0.54360487     0.08500
H562        H  0.38851773  0.95191368  0.54603990     0.08480
H563        H  0.35823967  0.91195996  0.59191836     0.08480
H564        H  0.32743916  0.88971468  0.54172564     0.05260
C565        C  0.60412405  0.12561071  0.56452468    -0.20550
C566        C  0.54993077  0.09969860  0.57220630    -0.07120
C567        C  0.51971817  0.12075554  0.55597323     0.13750
C568        C  0.54418644  0.16654298  0.53109526    -0.20600
C569        C  0.59828022  0.19172178  0.52149501    -0.07120
C570        C  0.62889235  0.17125949  0.53928574     0.13740
C571        C  0.68713664  0.19563761  0.53117424    -0.23950
H572        H  0.62682008  0.10896079  0.57739071     0.15030
H573        H  0.52038116  0.18193017  0.51829203     0.15060
C574        C  0.46148598  0.09457207  0.56466187    -0.23900
H575        H  0.70391954  0.17394657  0.54761818     0.05270
H576        H  0.70866846  0.23754167  0.54241639     0.08500
H577        H  0.69415329  0.19410717  0.99737117     0.08500
H578        H  0.45486151  0.09303040  0.59878632     0.08480
H579        H  0.44074551  0.05342485  0.55188647     0.08480
H580        H  0.44387144  0.11672434  0.55024552     0.05260
loop_ 
_geom_bond_atom_site_label_1 
_geom_bond_atom_site_label_2 
_geom_bond_distance 
_geom_bond_site_symmetry_2 
_ccdc_geom_bond_type 
C1            C2   1.401       .  A
C1            C6   1.395       .  A
C1          C276   1.475       .  S
C2            C3   1.417       .  A
C2            H7   1.078       .  S
C3            C4   1.417   1_545  A
C3           C12   1.512   1_545  S
C4            C5   1.401       .  A
C4            H8   1.078       .  S
C5            C6   1.394   1_565  A
C5          C260   1.475       .  S
C6            H9   1.085       .  S
C10          C11   1.402       .  A
C10          C15   1.397   1_545  A
C10         C244   1.478       .  S
C11          C12   1.416   1_545  A
C11          H16   1.078       .  S
C12          C13   1.416       .  A
C13          C14   1.401       .  A
C13          H17   1.078       .  S
C14          C15   1.396       .  A
C14         C231   1.478       .  S
C15          H18   1.084       .  S
O19          C34   1.261       .  A
O19         Al27   1.906       .  S
C20         C247   1.477       .  S
C20          O30   1.259       .  A
C20          O21   1.260       .  A
O21         Al23   1.908       .  S
O22          C24   1.260       .  A
O22         Al23   1.889       .  S
Al23         O31   1.889       .  S
Al23         O33   1.900       .  S
Al23         O32   1.781       .  S
C24         C196   1.475       .  S
C24          O37   1.263       .  A
O25          C35   1.259       .  A
O25         Al27   1.889       .  S
O26          C39   1.261       .  A
O26         Al36   1.897       .  S
Al27         O40   1.907       .  S
Al27         O37   1.916       .  S
Al27         O32   1.787       .  S
O28          C35   1.262       .  A
O28         Al36   1.912       .  S
O29          C38   1.265       .  A
O29         Al36   1.921       .  S
O30         Al36   1.897       .  S
O31          C38   1.258       .  A
O32         Al36   1.787       .  S
O33          C34   1.259       .  A
C34         C502   1.490       .  S
C35         C180   1.472       .  S
C38         C569   1.492       .  S
C39         C454   1.494       .  S
C39          O40   1.261       .  A
C41          C42   1.402       .  A
C41          C46   1.396       .  A
C41         C167   1.478       .  S
C42          C43   1.416       .  A
C42          H47   1.079       .  S
C43          C44   1.415       .  A
C43          C52   1.507       .  S
C44          C45   1.402       .  A
C44          H48   1.080       .  S
C45          C46   1.396       .  A
C45         C148   1.478       .  S
C46          H49   1.084       .  S
C50          C51   1.401       .  A
C50          C55   1.397       .  A
C50         C183   1.479       .  S
C51          C52   1.414       .  A
C51          H56   1.079       .  S
C52          C53   1.415       .  A
C53          C54   1.404       .  A
C53          H57   1.080       .  S
C54          C55   1.399       .  A
C54         C132   1.483       .  S
C55          H58   1.084       .  S
O59          C74   1.260       .  A
O59         Al67   1.901       .  S
C60         C228   1.478       .  S
C60          O70   1.258       .  A
C60          O61   1.259       .  A
O61         Al63   1.907       .  S
O62          C64   1.260       .  A
O62         Al63   1.888       .  S
Al63         O71   1.889       .  S
Al63         O73   1.904       .  S
Al63         O72   1.784       .  S
C64         C103   1.475       .  S
C64          O77   1.264       .  A
O65          C75   1.259       .  A
O65         Al67   1.891       .  S
O66          C79   1.259       .  A
O66         Al76   1.890       .  S
Al67         O80   1.908       .  S
Al67         O77   1.920       .  S
Al67         O72   1.789       .  S
O68          C75   1.262       .  A
O68         Al76   1.909       .  S
O69          C78   1.263       .  A
O69         Al76   1.917       .  S
O70         Al76   1.896       .  S
O71          C78   1.261       .  A
O72         Al76   1.787       .  S
O73          C74   1.258       .  A
C74         C406   1.488       .  S
C75         C135   1.471       .  S
C78         C553   1.483       .  S
C79         C441   1.477       .  S
C79          O80   1.261       .  A
C81          C82   1.393       .  A
C81          C86   1.398       .  A
C81         C119   1.475       .  S
C82          C83   1.399   1_455  A
C82          H87   1.085       .  S
C83          C84   1.406       .  A
C83         C215   1.488       .  S
C84          C85   1.420   1_655  A
C84          H88   1.074       .  S
C85          C86   1.416       .  A
C85          C94   1.515   1_455  S
C86          H89   1.078       .  S
C90          C91   1.395   1_455  A
C90          C95   1.401       .  A
C90         C100   1.479       .  S
C91          C92   1.396       .  A
C91          H96   1.084       .  S
C92          C93   1.403       .  A
C92         C199   1.478       .  S
C93          C94   1.417       .  A
C93          H97   1.077       .  S
C94          C95   1.418   1_655  A
C95          H98   1.078       .  S
C99         C100   1.401       .  A
C99         C104   1.403       .  A
C99         H106   1.084       .  S
C100        C101   1.413       .  A
C101        C102   1.404       .  A
C101        C108   1.507       .  S
C102        C103   1.403       .  A
C102        H107   1.084       .  S
C103        C104   1.415       .  A
C104        C105   1.508       .  S
C105        H109   1.111       .  S
C105        H110   1.110       .  S
C105        H111   1.111       .  S
C108        H112   1.109       .  S
C108        H113   1.110       .  S
C108        H114   1.111       .  S
C115        C116   1.408       .  A
C115        C120   1.404       .  A
C115        H122   1.084       .  S
C116        C117   1.422       .  A
C116        C364   1.488   1_554  S
C117        C118   1.403       .  A
C117        C414   1.509       .  S
C118        C119   1.397       .  A
C118        H123   1.084       .  S
C119        C120   1.408       .  A
C120        C121   1.506       .  S
C121        H125   1.111       .  S
C121        H126   1.110       .  S
C121        H127   1.110       .  S
C124        C407   1.509       .  S
C124        H128   1.109       .  S
C124        H129   1.111       .  S
C124        H130   1.111       .  S
C131        C132   1.405       .  A
C131        C136   1.403       .  A
C131        H138   1.084       .  S
C132        C133   1.417       .  A
C133        C134   1.402       .  A
C133        C140   1.508       .  S
C134        C135   1.401       .  A
C134        H139   1.085       .  S
C135        C136   1.411       .  A
C136        C137   1.507       .  S
C137        H141   1.111       .  S
C137        H142   1.109       .  S
C137        H143   1.111       .  S
C140        H144   1.111       .  S
C140        H145   1.107       .  S
C140        H146   1.110       .  S
C147        C148   1.402       .  A
C147        C152   1.404       .  A
C147        H154   1.084       .  S
C148        C149   1.412       .  A
C149        C150   1.402       .  A
C149        C156   1.508       .  S
C150        C151   1.404       .  A
C150        H445   1.084       .  S
C151        C152   1.415       .  A
C151        C369   1.477   1_554  S
C152        C153   1.508       .  S
C153        H157   1.111       .  S
C153        H158   1.109       .  S
C153        H159   1.111       .  S
H155        C440   1.084       .  S
C156        H160   1.108       .  S
C156        H161   1.110       .  S
C156        H452   1.111       .  S
H162        C446   1.111       .  S
C163        C164   1.411       .  A
C163        C168   1.405       .  A
C163        H170   1.083       .  S
C164        C165   1.424       .  A
C164        C329   1.494   1_554  S
C165        C166   1.402       .  A
C165        C462   1.510       .  S
C166        C167   1.399       .  A
C166        H171   1.085       .  S
C167        C168   1.408       .  A
C168        C169   1.507       .  S
C169        H173   1.111       .  S
C169        H174   1.110       .  S
C169        H175   1.109       .  S
C172        C455   1.510       .  S
C172        H176   1.110       .  S
C172        H467   1.110       .  S
C172        H468   1.111       .  S
H177        C462   1.110       .  S
H178        C462   1.111       .  S
C179        C180   1.402       .  A
C179        C184   1.402       .  A
C179        H186   1.085       .  S
C180        C181   1.411       .  A
C181        C182   1.403       .  A
C181        C188   1.507       .  S
C182        C183   1.404       .  A
C182        H187   1.084       .  S
C183        C184   1.415       .  A
C184        C185   1.507       .  S
C185        H189   1.110       .  S
C185        H190   1.110       .  S
C185        H191   1.108       .  S
C188        H192   1.109       .  S
C188        H193   1.111       .  S
C188        H194   1.111       .  S
C195        C196   1.404       .  A
C195        C200   1.402       .  A
C195        H202   1.084       .  S
C196        C197   1.414       .  A
C197        C198   1.404       .  A
C197        C204   1.508       .  S
C198        C199   1.403       .  A
C198        H203   1.084       .  S
C199        C200   1.412       .  A
C200        C201   1.507       .  S
C201        H205   1.111       .  S
C201        H206   1.109       .  S
C201        H207   1.110       .  S
C204        H208   1.109       .  S
C204        H209   1.111       .  S
C204        H210   1.111       .  S
C211        C212   1.408       .  A
C211        C216   1.409       .  A
C211        H218   1.084       .  S
C212        C503   1.421       .  A
C212        C324   1.490   1_554  S
C213        C502   1.421       .  A
C213        C504   1.399       .  A
C213        C220   1.511       .  S
C214        C215   1.402       .  A
C214        C503   1.399       .  A
C214        H219   1.084       .  S
C215        C216   1.415       .  A
C216        C217   1.508       .  S
C217        H221   1.111       .  S
C217        H222   1.110       .  S
C217        H223   1.107       .  S
C220        H224   1.111       .  S
C220        H225   1.110       .  S
C220        H226   1.111       .  S
C227        C228   1.405       .  A
C227        C232   1.404       .  A
C227        H234   1.084       .  S
C228        C229   1.416       .  A
C229        C230   1.403       .  A
C229        C236   1.508       .  S
C230        C231   1.401       .  A
C230        H235   1.084       .  S
C231        C232   1.411       .  A
C232        C233   1.506       .  S
C233        H237   1.111       .  S
C233        H238   1.109       .  S
C233        H239   1.110       .  S
C236        H240   1.109       .  S
C236        H241   1.111       .  S
C236        H242   1.111       .  S
C243        C244   1.401       .  A
C243        C248   1.403       .  A
C243        H250   1.084       .  S
C244        C245   1.412       .  A
C245        C246   1.404       .  A
C245        C252   1.506       .  S
C246        C247   1.404       .  A
C246        H251   1.084       .  S
C247        C248   1.415       .  A
C248        C249   1.508       .  S
C249        H253   1.111       .  S
C249        H254   1.109       .  S
C249        H255   1.111       .  S
C252        H256   1.109       .  S
C252        H257   1.110       .  S
C252        H258   1.111       .  S
C259        C260   1.400       .  A
C259        C264   1.404       .  A
C259        H266   1.084       .  S
C260        C261   1.408       .  A
C261        C262   1.402       .  A
C261        C268   1.506       .  S
C262        C263   1.407       .  A
C262        H267   1.084       .  S
C263        C264   1.419       .  A
C263        C368   1.483   1_554  S
C264        C265   1.508       .  S
C265        H269   1.111       .  S
C265        H271   1.111       .  S
C265        H560   1.109       .  S
C268        H272   1.109       .  S
C268        H273   1.110       .  S
C268        H274   1.111       .  S
H270        C555   1.109       .  S
C275        C276   1.398       .  A
C275        C280   1.406       .  A
C275        H282   1.084       .  S
C276        C277   1.408       .  A
C277        C278   1.401       .  A
C277        C284   1.507       .  S
C278        C279   1.409       .  A
C278        H283   1.084       .  S
C279        C280   1.425       .  A
C279        C328   1.492   1_554  S
C280        C281   1.509       .  S
C281        H285   1.111       .  S
C281        H286   1.110       .  S
C281        H577   1.110   1_554  S
C284        H288   1.110       .  S
C284        H289   1.109       .  S
C284        H290   1.111       .  S
H287        C571   1.110       .  S
C291        C292   1.401       .  A
C291        C296   1.395       .  A
C291        C566   1.475       .  S
C292        C293   1.417       .  A
C292        H297   1.078       .  S
C293        C294   1.417   1_545  A
C293        C302   1.512   1_545  S
C294        C295   1.401       .  A
C294        H298   1.078       .  S
C295        C296   1.394   1_565  A
C295        C550   1.475       .  S
C296        H299   1.085       .  S
C300        C301   1.402       .  A
C300        C305   1.397   1_545  A
C300        C534   1.478       .  S
C301        C302   1.416   1_545  A
C301        H306   1.078       .  S
C302        C303   1.416       .  A
C303        C304   1.401       .  A
C303        H307   1.078       .  S
C304        C305   1.396       .  A
C304        C521   1.478       .  S
C305        H308   1.084       .  S
O309        C324   1.261       .  A
O309       Al317   1.906       .  S
C310        C537   1.477       .  S
C310        O320   1.259       .  A
C310        O311   1.260       .  A
O311       Al313   1.908       .  S
O312        C314   1.260       .  A
O312       Al313   1.889       .  S
Al313       O321   1.889       .  S
Al313       O323   1.900       .  S
Al313       O322   1.781       .  S
C314        C486   1.475       .  S
C314        O327   1.263       .  A
O315        C325   1.259       .  A
O315       Al317   1.889       .  S
O316        C329   1.261       .  A
O316       Al326   1.897       .  S
Al317       O330   1.907       .  S
Al317       O327   1.916       .  S
Al317       O322   1.787       .  S
O318        C325   1.262       .  A
O318       Al326   1.912       .  S
O319        C328   1.265       .  A
O319       Al326   1.921       .  S
O320       Al326   1.897       .  S
O321        C328   1.258       .  A
O322       Al326   1.787       .  S
O323        C324   1.259       .  A
C325        C470   1.472       .  S
C329        O330   1.261       .  A
C331        C332   1.402       .  A
C331        C336   1.396       .  A
C331        C457   1.478       .  S
C332        C333   1.416       .  A
C332        H337   1.079       .  S
C333        C334   1.415       .  A
C333        C342   1.507       .  S
C334        C335   1.402       .  A
C334        H338   1.080       .  S
C335        C336   1.396       .  A
C335        C438   1.478       .  S
C336        H339   1.084       .  S
C340        C341   1.401       .  A
C340        C345   1.397       .  A
C340        C473   1.479       .  S
C341        C342   1.414       .  A
C341        H346   1.079       .  S
C342        C343   1.415       .  A
C343        C344   1.404       .  A
C343        H347   1.080       .  S
C344        C345   1.399       .  A
C344        C422   1.483       .  S
C345        H348   1.084       .  S
O349        C364   1.260       .  A
O349       Al357   1.901       .  S
C350        C518   1.478       .  S
C350        O360   1.258       .  A
C350        O351   1.259       .  A
O351       Al353   1.907       .  S
O352        C354   1.260       .  A
O352       Al353   1.888       .  S
Al353       O361   1.889       .  S
Al353       O363   1.904       .  S
Al353       O362   1.784       .  S
C354        C393   1.475       .  S
C354        O367   1.264       .  A
O355        C365   1.259       .  A
O355       Al357   1.891       .  S
O356        C369   1.259       .  A
O356       Al366   1.890       .  S
Al357       O370   1.908       .  S
Al357       O367   1.920       .  S
Al357       O362   1.789       .  S
O358        C365   1.262       .  A
O358       Al366   1.909       .  S
O359        C368   1.263       .  A
O359       Al366   1.917       .  S
O360       Al366   1.896       .  S
O361        C368   1.261       .  A
O362       Al366   1.787       .  S
O363        C364   1.258       .  A
C365        C425   1.471       .  S
C369        O370   1.261       .  A
C371        C372   1.393       .  A
C371        C376   1.398       .  A
C371        C409   1.475       .  S
C372        C373   1.399   1_455  A
C372        H377   1.085       .  S
C373        C374   1.406       .  A
C373        C505   1.488       .  S
C374        C375   1.420   1_655  A
C374        H378   1.074       .  S
C375        C376   1.416       .  A
C375        C384   1.515   1_455  S
C376        H379   1.078       .  S
C380        C381   1.395   1_455  A
C380        C385   1.401       .  A
C380        C390   1.479       .  S
C381        C382   1.396       .  A
C381        H386   1.084       .  S
C382        C383   1.403       .  A
C382        C489   1.478       .  S
C383        C384   1.417       .  A
C383        H387   1.077       .  S
C384        C385   1.418   1_655  A
C385        H388   1.078       .  S
C389        C390   1.401       .  A
C389        C394   1.403       .  A
C389        H396   1.084       .  S
C390        C391   1.413       .  A
C391        C392   1.404       .  A
C391        C398   1.507       .  S
C392        C393   1.403       .  A
C392        H397   1.084       .  S
C393        C394   1.415       .  A
C394        C395   1.508       .  S
C395        H399   1.111       .  S
C395        H400   1.110       .  S
C395        H401   1.111       .  S
C398        H402   1.109       .  S
C398        H403   1.110       .  S
C398        H404   1.111       .  S
C405        C406   1.408       .  A
C405        C410   1.404       .  A
C405        H412   1.084       .  S
C406        C407   1.422       .  A
C407        C408   1.403       .  A
C408        C409   1.397       .  A
C408        H413   1.084       .  S
C409        C410   1.408       .  A
C410        C411   1.506       .  S
C411        H415   1.111       .  S
C411        H416   1.110       .  S
C411        H417   1.110       .  S
C414        H418   1.109   1_554  S
C414        H419   1.111       .  S
C414        H420   1.111       .  S
C421        C422   1.405       .  A
C421        C426   1.403       .  A
C421        H428   1.084       .  S
C422        C423   1.417       .  A
C423        C424   1.402       .  A
C423        C430   1.508       .  S
C424        C425   1.401       .  A
C424        H429   1.085       .  S
C425        C426   1.411       .  A
C426        C427   1.507       .  S
C427        H431   1.111       .  S
C427        H432   1.109       .  S
C427        H433   1.111       .  S
C430        H434   1.111       .  S
C430        H435   1.107       .  S
C430        H436   1.110       .  S
C437        C438   1.402       .  A
C437        C442   1.404       .  A
C437        H444   1.084       .  S
C438        C439   1.412       .  A
C439        C440   1.402       .  A
C439        C446   1.508       .  S
C440        C441   1.404       .  A
C441        C442   1.415       .  A
C442        C443   1.508       .  S
C443        H447   1.111       .  S
C443        H448   1.109       .  S
C443        H449   1.111       .  S
C446        H450   1.108       .  S
C446        H451   1.110       .  S
C453        C454   1.411       .  A
C453        C458   1.405       .  A
C453        H460   1.083       .  S
C454        C455   1.424       .  A
C455        C456   1.402       .  A
C456        C457   1.399       .  A
C456        H461   1.085       .  S
C457        C458   1.408       .  A
C458        C459   1.507       .  S
C459        H463   1.111       .  S
C459        H464   1.110       .  S
C459        H465   1.109       .  S
C462        H466   1.110   1_554  S
C469        C470   1.402       .  A
C469        C474   1.402       .  A
C469        H476   1.085       .  S
C470        C471   1.411       .  A
C471        C472   1.403       .  A
C471        C478   1.507       .  S
C472        C473   1.404       .  A
C472        H477   1.084       .  S
C473        C474   1.415       .  A
C474        C475   1.507       .  S
C475        H479   1.110       .  S
C475        H480   1.110       .  S
C475        H481   1.108       .  S
C478        H482   1.109       .  S
C478        H483   1.111       .  S
C478        H484   1.111       .  S
C485        C486   1.404       .  A
C485        C490   1.402       .  A
C485        H492   1.084       .  S
C486        C487   1.414       .  A
C487        C488   1.404       .  A
C487        C494   1.508       .  S
C488        C489   1.403       .  A
C488        H493   1.084       .  S
C489        C490   1.412       .  A
C490        C491   1.507       .  S
C491        H495   1.111       .  S
C491        H496   1.109       .  S
C491        H497   1.110       .  S
C494        H498   1.109       .  S
C494        H499   1.111       .  S
C494        H500   1.111       .  S
C501        C502   1.408       .  A
C501        C506   1.409       .  A
C501        H508   1.084       .  S
C503        C510   1.511   1_554  S
C504        C505   1.402       .  A
C504        H509   1.084       .  S
C505        C506   1.415       .  A
C506        C507   1.508       .  S
C507        H511   1.111       .  S
C507        H512   1.110       .  S
C507        H513   1.107       .  S
C510        H514   1.111       .  S
C510        H515   1.110       .  S
C510        H516   1.111       .  S
C517        C518   1.405       .  A
C517        C522   1.404       .  A
C517        H524   1.084       .  S
C518        C519   1.416       .  A
C519        C520   1.403       .  A
C519        C526   1.508       .  S
C520        C521   1.401       .  A
C520        H525   1.084       .  S
C521        C522   1.411       .  A
C522        C523   1.506       .  S
C523        H527   1.111       .  S
C523        H528   1.109       .  S
C523        H529   1.110       .  S
C526        H530   1.109       .  S
C526        H531   1.111       .  S
C526        H532   1.111       .  S
C533        C534   1.401       .  A
C533        C538   1.403       .  A
C533        H540   1.084       .  S
C534        C535   1.412       .  A
C535        C536   1.404       .  A
C535        C542   1.506       .  S
C536        C537   1.404       .  A
C536        H541   1.084       .  S
C537        C538   1.415       .  A
C538        C539   1.508       .  S
C539        H543   1.111       .  S
C539        H544   1.109       .  S
C539        H545   1.111       .  S
C542        H546   1.109       .  S
C542        H547   1.110       .  S
C542        H548   1.111       .  S
C549        C550   1.400       .  A
C549        C554   1.404       .  A
C549        H556   1.084       .  S
C550        C551   1.408       .  A
C551        C552   1.402       .  A
C551        C558   1.506       .  S
C552        C553   1.407       .  A
C552        H557   1.084       .  S
C553        C554   1.419       .  A
C554        C555   1.508       .  S
C555        H559   1.111       .  S
C555        H561   1.111       .  S
C558        H562   1.109       .  S
C558        H563   1.110       .  S
C558        H564   1.111       .  S
C565        C566   1.398       .  A
C565        C570   1.406       .  A
C565        H572   1.084       .  S
C566        C567   1.408       .  A
C567        C568   1.401       .  A
C567        C574   1.507       .  S
C568        C569   1.409       .  A
C568        H573   1.084       .  S
C569        C570   1.425       .  A
C570        C571   1.509       .  S
C571        H575   1.111       .  S
C571        H576   1.110       .  S
C574        H578   1.110       .  S
C574        H579   1.109       .  S
C574        H580   1.111       .  S
