geometry optimzed in LAMMPS
_audit_creation_date              2020-11-30 
_audit_creation_method            'lammps2cif' 
_symmetry_space_group_name_H-M    'P1' 
_symmetry_Int_Tables_number       1 
_symmetry_cell_setting            triclinic 
loop_ 
_symmetry_equiv_pos_as_xyz 
  x,y,z 
_cell_length_a                    48.24477705083519 
_cell_length_b                    48.23556443361143 
_cell_length_c                    25.0529350621574 
_cell_angle_alpha                 90.02170753627105 
_cell_angle_beta                  90.02954892471882 
_cell_angle_gamma                 130.40235531333002 
loop_ 
_atom_site_label 
_atom_site_type_symbol 
_atom_site_fract_x 
_atom_site_fract_y 
_atom_site_fract_z 
_atom_site_charge 
C1          C  0.41123488  0.85319335  0.04960786     0.04990
C2          C  0.42264313  0.88834700  0.04893969    -0.11160
C3          C  0.42585187  0.90552438  0.50072333     0.02490
C4          C  0.41795617  0.88601348  0.45272420    -0.09690
C5          C  0.40799708  0.85144919  0.45270580     0.04980
C6          C  0.40428086  0.83495918  0.00132823    -0.09110
H7          H  0.42921876  0.90172526  0.08699936     0.10570
H8          H  0.41884373  0.89669196  0.41441160     0.08100
H9          H  0.39587311  0.80798096  0.50157113     0.07950
C10         C  0.40902822  0.46469072  0.45102493     0.04990
C11         C  0.40001650  0.47178884  0.99924345    -0.11160
C12         C  0.40611440  0.46196231  0.04751762     0.02490
C13         C  0.42095531  0.44483589  0.04752896    -0.09690
C14         C  0.43100925  0.43788535  0.99949789     0.04980
C15         C  0.42477246  0.44842676  0.45129130    -0.09110
H16         H  0.38803091  0.48453362  0.99917982     0.10570
H17         H  0.42404490  0.43714047  0.08595548     0.08100
H18         H  0.43181465  0.44451854  0.41291907     0.07950
C19         C  0.38578253  0.78026596  0.25049265     0.02420
C20         C  0.37211795  0.74503418  0.24812832     0.02420
O21         O  0.24181215  0.57589569  0.06971124    -0.83490
O22         O  0.30441676  0.64289084  0.03766041    -0.80540
C23         C  0.32739860  0.64829775  0.07031961     0.99970
O24         O  0.33731421  0.62976587  0.06674864    -0.80570
O25         O  0.33467146  0.57233690  0.04113542    -0.83220
C26         C  0.31155346  0.54642696  0.07210562     1.04500
O27         O  0.27821222  0.53036253  0.06708442    -0.75980
O28         O  0.21671929  0.52063710  0.04417576    -0.76170
C29         C  0.21789462  0.54193058  0.07579557     1.04450
O30         O  0.21849145  0.55662778  0.46183055    -0.83490
O31         O  0.28488540  0.61981809  0.42985004    -0.80550
C32         C  0.31877352  0.64393639  0.42329417     0.99990
O33         O  0.34048206  0.64577168  0.45480748    -0.80580
O34         O  0.33173194  0.58509333  0.43067929    -0.83190
C35         C  0.31632349  0.55195952  0.42505901     1.04460
O36         O  0.29075835  0.52837072  0.45610713    -0.76010
O37         O  0.23273439  0.52484538  0.43182002    -0.76150
C38         C  0.21387920  0.53438695  0.42842735     1.04420
Cr39       Cr  0.26398658  0.59731628  0.99976659     1.93740
Cr40       Cr  0.33246649  0.60606502  0.99853135     1.93210
Cr41       Cr  0.25671215  0.52964147  0.99970164     1.39100
O42         O  0.28446948  0.57759576  0.99941273    -1.21240
C43         C  0.37400304  0.49359501  0.24923581     0.02420
C44         C  0.35802973  0.50866499  0.24875998     0.02420
C45         C  0.11642518  0.48715626  0.25061054     0.02420
C46         C  0.08089235  0.47238179  0.24930961     0.02420
C47         C  0.00838355  0.44746780  0.45074517     0.04990
C48         C  0.02569873  0.45218765  0.49900800    -0.11160
C49         C  0.00813458  0.44579000  0.04765923     0.02490
C50         C  0.97294903  0.43426678  0.04801000    -0.09690
C51         C  0.95506161  0.43042515  0.50013752     0.04980
C52         C  0.97372316  0.43729560  0.45165973    -0.09110
H53         H  0.05283316  0.46099539  0.49875688     0.10570
H54         H  0.96057591  0.42894008  0.08659923     0.08100
H55         H  0.96200834  0.43478324  0.41354099     0.07950
C56         C  0.86535496  0.40496365  0.05034207     0.04990
C57         C  0.90036106  0.41596446  0.04924354    -0.11160
C58         C  0.91760017  0.41958662  0.50074246     0.02490
C59         C  0.89828577  0.41268358  0.45291771    -0.09690
C60         C  0.86375148  0.40271576  0.45339554     0.04980
C61         C  0.84718182  0.39849500  0.00218082    -0.09110
H62         H  0.91357795  0.42186855  0.08724952     0.10570
H63         H  0.90899091  0.41428830  0.41428547     0.08100
H64         H  0.82020335  0.39005620  0.00262608     0.07950
C65         C  0.47165298  0.39500135  0.04833526     0.04990
C66         C  0.47895133  0.38629403  0.99997272    -0.11160
C67         C  0.47089553  0.39410123  0.45151236     0.02490
C68         C  0.45503323  0.41024451  0.45157841    -0.09690
C69         C  0.44766711  0.41988120  0.99969100     0.04980
C70         C  0.45662049  0.41198109  0.04797515    -0.09110
H71         H  0.49089608  0.37350911  0.00004125     0.10570
H72         H  0.44842375  0.41451896  0.41310777     0.08100
H73         H  0.45278718  0.41910677  0.08633380     0.07950
C74         C  0.79187526  0.37858094  0.25136091     0.02420
C75         C  0.75628661  0.36378702  0.24929269     0.02420
C76         C  0.51823866  0.34560886  0.25024785     0.02420
C77         C  0.50304211  0.36152463  0.25001111     0.02420
O78         O  0.65403001  0.29452896  0.03861291    -0.83490
O79         O  0.58716275  0.23164603  0.07092321    -0.80540
C80         C  0.55321606  0.20759567  0.07716926     0.99970
O81         O  0.53177004  0.20621202  0.04566465    -0.80570
O82         O  0.54029246  0.26720990  0.06817490    -0.83220
C83         C  0.55714525  0.30070615  0.07385739     1.04500
O84         O  0.58310982  0.32404271  0.04323070    -0.75980
O85         O  0.64052567  0.32708469  0.06758208    -0.76170
C86         C  0.65921044  0.31738185  0.07126822     1.04450
O87         O  0.63089600  0.27503171  0.43085121    -0.83490
O88         O  0.56799090  0.20831800  0.46306637    -0.80550
C89         C  0.54550639  0.20334243  0.42982513     0.99990
O90         O  0.53557716  0.22184673  0.43328676    -0.80580
O91         O  0.53827989  0.27917193  0.45728547    -0.83190
C92         C  0.56165650  0.30520745  0.42676961     1.04460
O93         O  0.59511116  0.32191511  0.43244232    -0.76010
O94         O  0.65607727  0.33052241  0.45531598    -0.76150
C95         C  0.65472086  0.30896070  0.42414500     1.04420
Cr96       Cr  0.60845874  0.25395360  0.00085719     1.93740
Cr97       Cr  0.54016667  0.24578986  0.50103031     1.93210
Cr98       Cr  0.61653462  0.32217301  0.99973176     1.39100
O99         O  0.58829690  0.27408468  0.00052898    -1.21240
C100        C  0.49865873  0.10608927  0.25195322     0.02420
C101        C  0.48337281  0.07041502  0.25057871     0.02420
C102        C  0.45353383  0.99652875  0.04875443     0.04990
C103        C  0.44080684  0.96084568  0.04862002    -0.11160
C104        C  0.43757839  0.94333411  0.00060827     0.02490
C105        C  0.44616794  0.96281792  0.45245725    -0.09690
C106        C  0.45675545  0.99763853  0.45194150     0.04980
C107        C  0.46097657  0.01462380  0.00028547    -0.09110
H108        H  0.43418790  0.94773944  0.08690099     0.10570
H109        H  0.44483498  0.95166032  0.41436202     0.08100
H110        H  0.47034515  0.04199222  0.00022791     0.07950
C111        C  0.44835267  0.04280219  0.33660665     0.25450
C112        C  0.47485964  0.04991422  0.30108116    -0.22660
C113        C  0.49508701  0.03941115  0.31518431     0.20360
C114        C  0.48941492  0.02268377  0.36437088     0.25390
C115        C  0.46336306  0.01612528  0.40032389    -0.22600
C116        C  0.44274458  0.02616027  0.38591570     0.20300
F117        F  0.41664962  0.01912985  0.41920273    -0.12560
F118        F  0.42784607  0.05188260  0.32337351    -0.14920
F119        F  0.51002915  0.01370880  0.37754440    -0.14920
F120        F  0.52133217  0.04661583  0.28208382    -0.12560
C121        C  0.49696912  0.04464194  0.11529305     0.25450
C122        C  0.46093034  0.01554938  0.10010305    -0.22660
C123        C  0.43244742  0.00384104  0.13517132     0.20360
C124        C  0.43986613  0.02165702  0.18406841     0.25390
C125        C  0.47590231  0.05114686  0.19895830    -0.22600
C126        C  0.50444005  0.06193980  0.16458388     0.20300
F127        F  0.53960863  0.08856479  0.17934275    -0.12560
F128        F  0.52502081  0.05557419  0.08292579    -0.14920
F129        F  0.41181519  0.01043508  0.21664915    -0.14920
F130        F  0.39744216  0.97545159  0.12168713    -0.12560
C131        C  0.48862941  0.13907266  0.31475947     0.25450
C132        C  0.50680072  0.12602373  0.30267253    -0.22660
C133        C  0.53606613  0.13649818  0.33462967     0.20360
C134        C  0.54819860  0.16110461  0.37644645     0.25390
C135        C  0.53095305  0.17545838  0.38754035    -0.22600
C136        C  0.50041497  0.16341065  0.35698429     0.20300
F137        F  0.48219923  0.17549339  0.36733025    -0.12560
F138        F  0.45980598  0.12872883  0.28489166    -0.14920
F139        F  0.57797624  0.17210053  0.40432715    -0.14920
F140        F  0.55428219  0.12452438  0.32345388    -0.12560
C141        C  0.48740498  0.12750098  0.16995943     0.25450
C142        C  0.51162469  0.12891457  0.20331472    -0.22660
C143        C  0.54919499  0.15546468  0.19432560     0.20360
C144        C  0.56255800  0.18052640  0.15307665     0.25390
C145        C  0.53857396  0.18010903  0.12018812    -0.22600
C146        C  0.50069860  0.15298966  0.12884852     0.20300
F147        F  0.47644382  0.15145825  0.09842071    -0.12560
F148        F  0.45098250  0.10231360  0.17849827    -0.14920
F149        F  0.59917374  0.20544050  0.14603973    -0.14920
F150        F  0.57321408  0.15729586  0.22585750    -0.12560
C151        C  0.50977122  0.29370282  0.12925423     0.25450
C152        C  0.54660720  0.31320930  0.11650909    -0.22660
C153        C  0.57367787  0.34499385  0.14510426     0.20360
C154        C  0.56421179  0.35616938  0.18736870     0.25390
C155        C  0.52749218  0.33650225  0.20061846    -0.22600
C156        C  0.50025840  0.30561576  0.17063649     0.20300
F157        F  0.46460681  0.28626359  0.18283787    -0.12560
F158        F  0.48307640  0.26325743  0.10156031    -0.14920
F159        F  0.59101976  0.38601129  0.21592173    -0.14920
F160        F  0.60945798  0.36433691  0.13374142    -0.12560
C161        C  0.55799424  0.36298813  0.32995444     0.25450
C162        C  0.52680620  0.33607254  0.30021110    -0.22660
C163        C  0.50634455  0.29928803  0.31391649     0.20360
C164        C  0.51716550  0.28941961  0.35617806     0.25390
C165        C  0.54933605  0.31613282  0.38435593    -0.22600
C166        C  0.56951290  0.35306061  0.37132988     0.20300
F167        F  0.60030052  0.37946637  0.39866584    -0.12560
F168        F  0.57805449  0.39871128  0.31745759    -0.14920
F169        F  0.49712452  0.25356177  0.36782844    -0.14920
F170        F  0.47616366  0.27279154  0.28563789    -0.12560
C171        C  0.70293166  0.31288291  0.30152236     0.25450
C172        C  0.73282358  0.35026266  0.29739073    -0.22660
C173        C  0.73755281  0.37425913  0.33561701     0.20360
C174        C  0.71231056  0.36102783  0.37705823     0.25390
C175        C  0.68190514  0.32345803  0.38080767    -0.22600
C176        C  0.67784398  0.29957633  0.34267121     0.20300
F177        F  0.64920158  0.26322556  0.34427656    -0.12560
F178        F  0.69796015  0.28903170  0.26536697    -0.14920
F179        F  0.71757508  0.38509985  0.41306196    -0.14920
F180        F  0.76584236  0.41058217  0.33166367    -0.12560
C181        C  0.69604105  0.36015101  0.14792794     0.25450
C182        C  0.68747488  0.33255592  0.11321704    -0.22660
C183        C  0.70538049  0.31848337  0.12027288     0.20360
C184        C  0.72961123  0.33029253  0.16252142     0.25390
C185        C  0.73680200  0.35661483  0.19832960    -0.22600
C186        C  0.72040120  0.37194732  0.19008722     0.20300
F187        F  0.72715502  0.39763659  0.22410621    -0.12560
F188        F  0.68020886  0.37514125  0.14216473    -0.14920
F189        F  0.74395782  0.31401200  0.17070131    -0.14920
F190        F  0.69828441  0.29194579  0.08791775    -0.12560
C191        C  0.51587465  0.40349082  0.11379397     0.25450
C192        C  0.47984596  0.38664107  0.09990277    -0.22660
C193        C  0.45173429  0.36273717  0.13634337     0.20360
C194        C  0.45942220  0.35498620  0.18528555     0.25390
C195        C  0.49538666  0.37131918  0.19887160    -0.22600
C196        C  0.52365536  0.39633876  0.16320562     0.20300
F197        F  0.55887182  0.41444615  0.17671145    -0.12560
F198        F  0.54359998  0.42762913  0.08003088    -0.14920
F199        F  0.43163086  0.33090670  0.21898516    -0.14920
F200        F  0.41671560  0.34636523  0.12399890    -0.12560
C201        C  0.51165490  0.40580195  0.31558284     0.25450
C202        C  0.49359093  0.36956609  0.30102357    -0.22660
C203        C  0.46738402  0.34133351  0.33579611     0.20360
C204        C  0.46048334  0.34931949  0.38523006     0.25390
C205        C  0.47899278  0.38558690  0.40007671    -0.22600
C206        C  0.50428915  0.41374930  0.36461866     0.20300
F207        F  0.52232066  0.44900948  0.37801200    -0.12360
F208        F  0.53704180  0.43353057  0.28277371    -0.14920
F209        F  0.43506405  0.32164652  0.41808910    -0.14920
F210        F  0.44802171  0.30602024  0.32142777    -0.12560
C211        C  0.83478833  0.41791848  0.11444414     0.25450
C212        C  0.84768061  0.39953691  0.10244361    -0.22660
C213        C  0.84404526  0.37610254  0.14089203     0.20360
C214        C  0.82702528  0.37041233  0.18975476     0.25390
C215        C  0.81322827  0.38798077  0.20126848    -0.22600
C216        C  0.81804095  0.41248163  0.16363819     0.20300
F217        F  0.80648689  0.43110881  0.17455943    -0.12560
F218        F  0.83893897  0.44156897  0.07881860    -0.14920
F219        F  0.82251472  0.34636840  0.22493913    -0.14920
F220        F  0.85586649  0.35766361  0.13034101    -0.12560
C221        C  0.85928685  0.42535048  0.36654950     0.25450
C222        C  0.84495479  0.39641062  0.40222185    -0.22660
C223        C  0.81360517  0.36123694  0.38771073     0.20360
C224        C  0.79679178  0.35508262  0.33831602     0.25390
C225        C  0.81025133  0.38429074  0.30338124    -0.22600
C226        C  0.84195128  0.41938998  0.31775377     0.20300
F227        F  0.85589415  0.44802478  0.28469461    -0.12560
F228        F  0.88990103  0.45950477  0.37934634    -0.14920
F229        F  0.76806593  0.32043227  0.32394971    -0.14920
F230        F  0.79998064  0.33266719  0.42073928    -0.12560
C231        C  0.05499651  0.43921009  0.33731783     0.25450
C232        C  0.06019949  0.46389701  0.29973620    -0.22660
C233        C  0.04740981  0.48237586  0.31158919     0.20360
C234        C  0.03071562  0.47713092  0.36061944     0.25390
C235        C  0.02639491  0.45322016  0.39883809    -0.22600
C236        C  0.03849663  0.43412891  0.38657163     0.20300
F237        F  0.03366760  0.40999490  0.42192376    -0.12560
F238        F  0.06579271  0.41992811  0.32618953    -0.14920
F239        F  0.01974777  0.49630771  0.37143377    -0.14920
F240        F  0.05240756  0.50669262  0.27647299    -0.12560
C241        C  0.01509915  0.42341841  0.13275415     0.25450
C242        C  0.02704956  0.45247192  0.09878937    -0.22660
C243        C  0.05617719  0.48824895  0.11494055     0.20360
C244        C  0.07325484  0.49490233  0.16419276     0.25390
C245        C  0.06206763  0.46578778  0.19757937    -0.22600
C246        C  0.03260846  0.43002216  0.18165366     0.20300
F247        F  0.02112047  0.40146784  0.21325817    -0.12560
F248        F  0.98670293  0.38865102  0.11821959    -0.14920
F249        F  0.10004808  0.52982199  0.17992282    -0.14920
F250        F  0.06736402  0.51680179  0.08357186    -0.12560
C251        C  0.35735167  0.56700692  0.34798071     0.25450
C252        C  0.32874882  0.54078010  0.38247459    -0.22660
C253        C  0.31203405  0.50384047  0.37519481     0.20360
C254        C  0.32265628  0.49340293  0.33321675     0.25390
C255        C  0.35043712  0.51961688  0.29825028    -0.22600
C256        C  0.36803363  0.55646657  0.30652412     0.20300
F257        F  0.39523046  0.58238758  0.27357581    -0.12560
F258        F  0.37468210  0.60295553  0.35331912    -0.14920
F259        F  0.30451349  0.45749930  0.32511558    -0.14920
F260        F  0.28468727  0.47753816  0.40763880    -0.12560
C261        C  0.29806740  0.50383902  0.14583327     0.25450
C262        C  0.32371946  0.53461710  0.11401337    -0.22660
C263        C  0.36114288  0.55435471  0.12356812     0.20360
C264        C  0.37246025  0.54463663  0.16547951     0.25390
C265        C  0.34672413  0.51508526  0.19850728    -0.22600
C266        C  0.30955265  0.49434182  0.18771055     0.20300
F267        F  0.28425631  0.46532629  0.21881559    -0.12560
F268        F  0.26175410  0.48321319  0.13740916    -0.14920
F269        F  0.40857378  0.56540613  0.17566594    -0.14920
F270        F  0.38698297  0.58394876  0.09378802    -0.12560
C271        C  0.15108186  0.47835896  0.31168992     0.25450
C272        C  0.13651729  0.49527861  0.30116798    -0.22660
C273        C  0.14568400  0.52349657  0.33449682     0.20360
C274        C  0.17020397  0.53565345  0.37644145     0.25390
C275        C  0.18599419  0.51964697  0.38607033    -0.22600
C276        C  0.17545030  0.49025428  0.35387856     0.20300
F277        F  0.18909464  0.47332661  0.36249051    -0.12560
F278        F  0.14219999  0.45068009  0.28028878    -0.14920
F279        F  0.17966126  0.56428605  0.40594237    -0.14920
F280        F  0.13261870  0.54082956  0.32444843    -0.12560
C281        C  0.16254231  0.48930681  0.12627570     0.25450
C282        C  0.19037823  0.52720462  0.11877237    -0.22660
C283        C  0.19152366  0.55121700  0.15281931     0.20360
C284        C  0.16645064  0.53782111  0.19401747     0.25390
C285        C  0.13922456  0.50021928  0.20192177    -0.22600
C286        C  0.13707829  0.47599183  0.16743991     0.20300
F287        F  0.11122977  0.43951532  0.17497420    -0.12560
F288        F  0.16024540  0.46504296  0.09460256    -0.14920
F289        F  0.16897788  0.56182474  0.22670092    -0.14920
F290        F  0.21722519  0.58789182  0.14707679    -0.12560
C291        C  0.38156617  0.71006400  0.18896260     0.25450
C292        C  0.36580367  0.72607906  0.19686478    -0.22660
C293        C  0.33948478  0.71855647  0.16070810     0.20360
C294        C  0.32808896  0.69439150  0.11855496     0.25390
C295        C  0.34243453  0.67671161  0.11200532    -0.22600
C296        C  0.37006895  0.68563428  0.14695826     0.20300
F297        F  0.38528539  0.66999588  0.14167594    -0.12560
F298        F  0.40718189  0.71705789  0.22340217    -0.14920
F299        F  0.30153823  0.68701847  0.08592099    -0.14920
F300        F  0.32248888  0.73216579  0.16875553    -0.12560
C301        C  0.32203790  0.68960284  0.29807212     0.25450
C302        C  0.35884051  0.72129363  0.29592586    -0.22660
C303        C  0.38266967  0.72789077  0.33625973     0.20360
C304        C  0.36982456  0.70291030  0.37799829     0.25390
C305        C  0.33292150  0.67079460  0.37967753    -0.22600
C306        C  0.30922724  0.66463497  0.33920485     0.20300
F307        F  0.27359078  0.63403048  0.33851794    -0.12560
F308        F  0.29821882  0.68272704  0.26004764    -0.14920
F309        F  0.39355314  0.71020648  0.41653798    -0.14920
F310        F  0.41850068  0.75790405  0.33433946    -0.12560
C311        C  0.36316434  0.45064212  0.31949614     0.25450
C312        C  0.38410842  0.48644006  0.30028995    -0.22660
C313        C  0.41355979  0.51527328  0.33093315     0.20360
C314        C  0.42173993  0.50834169  0.38025288     0.25390
C315        C  0.40043014  0.47255686  0.39958111    -0.22600
C316        C  0.37119956  0.44378359  0.36883311     0.20300
F317        F  0.35010024  0.40905003  0.38713845    -0.12560
F318        F  0.33414714  0.42240584  0.29130222    -0.14920
F319        F  0.45068660  0.53639258  0.40883538    -0.14920
F320        F  0.43435092  0.55005002  0.31298462    -0.12560
C321        C  0.42525012  0.50097136  0.12798214     0.25450
C322        C  0.39753551  0.46992383  0.09878793    -0.22660
C323        C  0.36217480  0.44585528  0.11983130     0.20360
C324        C  0.35445748  0.45319060  0.16915980     0.25390
C325        C  0.38222970  0.48431152  0.19844448    -0.22600
C326        C  0.41771515  0.50798840  0.17766046     0.20300
F327        F  0.44483294  0.53848962  0.20480213    -0.12560
F328        F  0.45955434  0.52458367  0.10805393    -0.14920
F329        F  0.31991128  0.43007578  0.18823084    -0.14920
F330        F  0.33528556  0.41520412  0.09269884    -0.12560
C331        C  0.42525342  0.83133182  0.31607421     0.25450
C332        C  0.39077704  0.79842643  0.30248341    -0.22660
C333        C  0.36159333  0.78366276  0.33815677     0.20360
C334        C  0.36733221  0.80038530  0.38753692     0.25390
C335        C  0.40194798  0.83294508  0.40125248    -0.22600
C336        C  0.43071838  0.84854128  0.36477122     0.20300
F337        F  0.46434133  0.88023270  0.37678317    -0.12560
F338        F  0.45386190  0.84657400  0.28240688    -0.14920
F339        F  0.33884554  0.78539888  0.42135483    -0.14920
F340        F  0.32732206  0.75365359  0.32462732    -0.12560
C341        C  0.42589903  0.82458233  0.11461330     0.25450
C342        C  0.40587735  0.83548241  0.10150534    -0.22660
C343        C  0.38102484  0.83012218  0.13881550     0.20360
C344        C  0.37560378  0.81335762  0.18781510     0.25390
C345        C  0.39485512  0.80153438  0.20046761    -0.22600
C346        C  0.42066126  0.80800789  0.16389902     0.20300
F347        F  0.44068724  0.79818585  0.17595086    -0.12560
F348        F  0.45089491  0.83051254  0.07998653    -0.14920
F349        F  0.35018125  0.80702591  0.22192364    -0.14920
F350        F  0.36108604  0.84009128  0.12699271    -0.12560
C351        C  0.41119848  0.85317369  0.54959867     0.04990
C352        C  0.42261199  0.88832930  0.54892963    -0.11160
C353        C  0.42588271  0.90554201  0.00073285     0.02490
C354        C  0.41799003  0.88603209  0.95273391    -0.09690
C355        C  0.40803455  0.85146956  0.95271537     0.04980
C356        C  0.40424111  0.83493784  0.50131909    -0.09110
H357        H  0.42919377  0.90171034  0.58698820     0.10570
H358        H  0.41887499  0.89670879  0.91442127     0.08100
H359        H  0.39591432  0.80800291  0.00158015     0.07950
C360        C  0.40895418  0.46467153  0.95102620     0.04990
C361        C  0.40005518  0.47177250  0.49923982    -0.11160
C362        C  0.40610979  0.46190356  0.54750970     0.02490
C363        C  0.42092912  0.44475654  0.54751831    -0.09690
C364        C  0.43103613  0.43785991  0.49949193     0.04980
C365        C  0.42468802  0.44839708  0.95129256    -0.09110
H366        H  0.38807319  0.48452085  0.49917684     0.10570
H367        H  0.42395985  0.43700027  0.58593529     0.08100
H368        H  0.43167398  0.44443649  0.91291297     0.07950
C369        C  0.38578437  0.78027564  0.75049870     0.02420
C370        C  0.37211688  0.74504352  0.74813255     0.02420
O371        O  0.24174483  0.57587329  0.56971889    -0.83490
O372        O  0.30434464  0.64287619  0.53768598    -0.80540
C373        C  0.32732631  0.64828121  0.57034355     0.99970
O374        O  0.33723954  0.62974746  0.56677258    -0.80570
O375        O  0.33461104  0.57232907  0.54114748    -0.83220
C376        C  0.31149104  0.54640681  0.57210031     1.04500
O377        O  0.27815002  0.53034318  0.56707919    -0.75980
O378        O  0.21665901  0.52061910  0.54416760    -0.76170
C379        C  0.21783600  0.54190730  0.57580303     1.04450
O380        O  0.21855016  0.55663964  0.96182756    -0.83490
O381        O  0.28494594  0.61981900  0.92983297    -0.80550
C382        C  0.31883295  0.64393820  0.92326998     0.99990
O383        O  0.34054525  0.64577527  0.95477670    -0.80580
O384        O  0.33177930  0.58508557  0.93066207    -0.83190
C385        C  0.31635929  0.55194837  0.92504467     1.04460
O386        O  0.29080319  0.52836754  0.95611019    -0.76010
O387        O  0.23277569  0.52483992  0.93182954    -0.76150
C388        C  0.21392025  0.53438187  0.92844088     1.04420
Cr389      Cr  0.26392143  0.59730370  0.49977959     1.93740
Cr390      Cr  0.33240534  0.60605982  0.49855206     1.93210
Cr391      Cr  0.25665798  0.52963374  0.49969556     1.39100
O392        O  0.28440947  0.57758737  0.49942211    -1.21240
C393        C  0.37394428  0.49353166  0.74917592     0.02420
C394        C  0.35796715  0.50859756  0.74868313     0.02420
C395        C  0.11640779  0.48710369  0.75068630     0.02420
C396        C  0.08087570  0.47233188  0.74936408     0.02420
C397        C  0.00831156  0.44740069  0.95074248     0.04990
C398        C  0.02564061  0.45215304  0.99900415    -0.11160
C399        C  0.00817619  0.44578711  0.54766285     0.02490
C400        C  0.97298257  0.43424553  0.54800833    -0.09690
C401        C  0.95500679  0.43040029  0.00013592     0.04980
C402        C  0.97364726  0.43721929  0.95165432    -0.09110
H403        H  0.05277405  0.46095829  0.99875183     0.10570
H404        H  0.96058190  0.42886538  0.58658940     0.08100
H405        H  0.96191511  0.43465794  0.91352956     0.07950
C406        C  0.86542208  0.40501240  0.55034184     0.04990
C407        C  0.90043300  0.41602405  0.54924233    -0.11160
C408        C  0.91754607  0.41956570  0.00074150     0.02490
C409        C  0.89824870  0.41270370  0.95291526    -0.09690
C410        C  0.86370809  0.40272124  0.95339413     0.04980
C411        C  0.84723835  0.39851836  0.50218155    -0.09110
H412        H  0.91367080  0.42196971  0.58724197     0.10570
H413        H  0.90897195  0.41435494  0.91427758     0.08100
H414        H  0.82026046  0.39008090  0.50262713     0.07950
C415        C  0.47169602  0.39499704  0.54833207     0.04990
C416        C  0.47897293  0.38626668  0.49997059    -0.11160
C417        C  0.47089671  0.39415062  0.95151517     0.02490
C418        C  0.45504947  0.41030906  0.95158094    -0.09690
C419        C  0.44769032  0.41985439  0.49968571     0.04980
C420        C  0.45668002  0.41199249  0.54796843    -0.09110
H421        H  0.49091778  0.37348191  0.50004043     0.10570
H422        H  0.44848561  0.41462533  0.91310557     0.08100
H423        H  0.45288932  0.41916402  0.58632115     0.07950
C424        C  0.79188557  0.37860247  0.75131493     0.02420
C425        C  0.75629807  0.36381202  0.74923873     0.02420
C426        C  0.51824877  0.34562302  0.75030006     0.02420
C427        C  0.50306357  0.36154989  0.75005376     0.02420
O428        O  0.65399771  0.29452748  0.53861746    -0.83490
O429        O  0.58712947  0.23164962  0.57093933    -0.80540
C430        C  0.55318288  0.20759575  0.57718185     0.99970
O431        O  0.53173595  0.20621255  0.54567925    -0.80570
O432        O  0.54025885  0.26721145  0.56817983    -0.83220
C433        C  0.55711751  0.30070848  0.57386899     1.04500
O434        O  0.58308139  0.32404477  0.54324091    -0.75980
O435        O  0.64049926  0.32708768  0.56758786    -0.76170
C436        C  0.65918679  0.31738751  0.57126565     1.04450
O437        O  0.63093335  0.27503855  0.93083887    -0.83490
O438        O  0.56802811  0.20832235  0.96304320    -0.80550
C439        C  0.54553963  0.20334619  0.92980906     0.99990
O440        O  0.53561011  0.22184995  0.93327724    -0.80580
O441        O  0.53831222  0.27917351  0.95728596    -0.83190
C442        C  0.56168658  0.30521067  0.92677089     1.04460
O443        O  0.59514163  0.32191646  0.93243463    -0.76010
O444        O  0.65611070  0.33052703  0.95530957    -0.76150
C445        C  0.65475352  0.30896783  0.92413134     1.04420
Cr446      Cr  0.60842353  0.25395141  0.50087118     1.93740
Cr447      Cr  0.54020020  0.24579033  0.00102276     1.93210
Cr448      Cr  0.61650380  0.32217257  0.49973956     1.39100
O449        O  0.58826371  0.27408397  0.50053941    -1.21240
C450        C  0.49864753  0.10607827  0.75194244     0.02420
C451        C  0.48335938  0.07040379  0.75057133     0.02420
C452        C  0.45351641  0.99651556  0.54874996     0.04990
C453        C  0.44078056  0.96082927  0.54861311    -0.11160
C454        C  0.43755420  0.94331911  0.50060067     0.02490
C455        C  0.44618333  0.96282899  0.95246312    -0.09690
C456        C  0.45676312  0.99764621  0.95194510     0.04980
C457        C  0.46096887  0.01461521  0.50028294    -0.09110
H458        H  0.43415239  0.94771899  0.58689246     0.10570
H459        H  0.44485013  0.95167151  0.91436777     0.08100
H460        H  0.47034424  0.04198631  0.50022774     0.07950
C461        C  0.44833891  0.04278606  0.83659657     0.25450
C462        C  0.47485205  0.04990707  0.80107582    -0.22660
C463        C  0.49509234  0.03942038  0.81518851     0.20360
C464        C  0.48942527  0.02269850  0.86437851     0.25390
C465        C  0.46336579  0.01612928  0.90032561    -0.22600
C466        C  0.44273532  0.02614895  0.88590890     0.20300
F467        F  0.41663358  0.01910839  0.91919080    -0.12560
F468        F  0.42782254  0.05185377  0.82335599    -0.14920
F469        F  0.51005123  0.01373886  0.87756102    -0.14920
F470        F  0.52134468  0.04663552  0.78209419    -0.12560
C471        C  0.49695428  0.04460461  0.61531196     0.25450
C472        C  0.46091332  0.01553538  0.60009909    -0.22660
C473        C  0.43242704  0.00385162  0.63514225     0.20360
C474        C  0.43984619  0.02166828  0.68403924     0.25390
C475        C  0.47588535  0.05113426  0.69895215    -0.22600
C476        C  0.50442451  0.06190453  0.66460058     0.20300
F477        F  0.53959279  0.08851025  0.67937907    -0.12560
F478        F  0.52500734  0.05551268  0.58296810    -0.14920
F479        F  0.41179383  0.01047117  0.71659683    -0.14920
F480        F  0.39741903  0.97548595  0.62163353    -0.12560
C481        C  0.48862646  0.13905472  0.81478111     0.25450
C482        C  0.50680525  0.12601830  0.80266117    -0.22660
C483        C  0.53608984  0.13650886  0.83458470     0.20360
C484        C  0.54823379  0.16112019  0.87639849     0.25390
C485        C  0.53097959  0.17546086  0.88752473    -0.22600
C486        C  0.50042301  0.16339652  0.85700409     0.20300
F487        F  0.48219807  0.17546512  0.86738510    -0.12560
F488        F  0.45978364  0.12869380  0.78494929    -0.14920
F489        F  0.57802931  0.17213340  0.90424436    -0.14920
F490        F  0.55431001  0.12454310  0.82338131    -0.12560
C491        C  0.48738060  0.12750871  0.66998892     0.25450
C492        C  0.51160296  0.12889804  0.70329937    -0.22660
C493        C  0.54917050  0.15542681  0.69427029     0.20360
C494        C  0.56252871  0.18049277  0.65302889     0.25390
C495        C  0.53854346  0.18010288  0.62019037    -0.22600
C496        C  0.50067018  0.15300327  0.62888769     0.20300
F497        F  0.47641481  0.15149933  0.59850916    -0.12560
F498        F  0.45096086  0.10234044  0.67856408    -0.14920
F499        F  0.59914177  0.20538362  0.64594932    -0.14920
F500        F  0.57319234  0.15723679  0.72576006    -0.12560
C501        C  0.50975610  0.29371046  0.62929388     0.25450
C502        C  0.54658931  0.31321283  0.61653470    -0.22660
C503        C  0.57366731  0.34499188  0.64513421     0.20360
C504        C  0.56421095  0.35616770  0.68741244     0.25390
C505        C  0.52749408  0.33650648  0.70067238    -0.22600
C506        C  0.50025315  0.30562379  0.67069049     0.20300
F507        F  0.46460397  0.28627717  0.68290259    -0.12560
F508        F  0.48305439  0.26326938  0.60159884    -0.14920
F509        F  0.59102542  0.38600551  0.71596582    -0.14920
F510        F  0.60944501  0.36432960  0.63376031    -0.12560
C511        C  0.55801022  0.36299993  0.82999693     0.25450
C512        C  0.52681454  0.33608665  0.80026461    -0.22660
C513        C  0.50635235  0.29930157  0.81396694     0.20360
C514        C  0.51718183  0.28943000  0.85621041     0.25390
C515        C  0.54936125  0.31614040  0.88437300    -0.22600
C516        C  0.56953726  0.35306908  0.87135407     0.20300
F517        F  0.60033251  0.37947227  0.89867811    -0.12560
F518        F  0.57807136  0.39872357  0.81750263    -0.14920
F519        F  0.49714022  0.25357136  0.86785606    -0.14920
F520        F  0.47616429  0.27280705  0.78569880    -0.12560
C521        C  0.70293608  0.31290291  0.80145753     0.25450
C522        C  0.73283135  0.35028238  0.79733491    -0.22660
C523        C  0.73756988  0.37427407  0.83558093     0.20360
C524        C  0.71233649  0.36103833  0.87703639     0.25390
C525        C  0.68192943  0.32346891  0.88077984    -0.22600
C526        C  0.67785628  0.29959205  0.84261992     0.20300
F527        F  0.64920998  0.26324218  0.84421658    -0.12560
F528        F  0.69795522  0.28905588  0.76528315    -0.14920
F529        F  0.71761239  0.38510563  0.91306221    -0.14920
F530        F  0.76586211  0.41059695  0.83163703    -0.12560
C531        C  0.69603431  0.36016770  0.64790755     0.25450
C532        C  0.68746605  0.33257337  0.61319348    -0.22660
C533        C  0.70538617  0.31851397  0.62022413     0.20360
C534        C  0.72962907  0.33033074  0.66245765     0.25390
C535        C  0.73681740  0.35664760  0.69827520    -0.22600
C536        C  0.72040681  0.37197190  0.69005120     0.20300
F537        F  0.72715983  0.39765745  0.72407801    -0.12560
F538        F  0.68019047  0.37514744  0.64216558    -0.14920
F539        F  0.74398685  0.31405940  0.67061791    -0.14920
F540        F  0.69829234  0.29198084  0.58786033    -0.12560
C541        C  0.51591355  0.40350026  0.61381649     0.25450
C542        C  0.47988554  0.38663978  0.59990462    -0.22660
C543        C  0.45176799  0.36273379  0.63633672     0.20360
C544        C  0.45945016  0.35499397  0.68529462     0.25390
C545        C  0.49541449  0.37134049  0.69890440    -0.22600
C546        C  0.52368837  0.39635915  0.66324396     0.20300
F547        F  0.55890330  0.41447331  0.67676892    -0.12560
F548        F  0.54364281  0.42763763  0.58005824    -0.14920
F549        F  0.43165404  0.33091162  0.71898610    -0.14920
F550        F  0.41674944  0.34635064  0.62396966    -0.12560
C551        C  0.51166073  0.40583573  0.81559221     0.25450
C552        C  0.49360997  0.36959863  0.80105677    -0.22660
C553        C  0.46740462  0.34137128  0.83583657     0.20360
C554        C  0.46049594  0.34936402  0.88525653     0.25390
C555        C  0.47899504  0.38563299  0.90008267    -0.22600
C556        C  0.50428659  0.41378975  0.86461427     0.20300
F557        F  0.52230695  0.44905102  0.87798528    -0.12360
F558        F  0.53704276  0.43355975  0.78277333    -0.14920
F559        F  0.43507813  0.32169499  0.91812208    -0.14920
F560        F  0.44804924  0.30605585  0.82148756    -0.12560
C561        C  0.83483412  0.41795670  0.61441695     0.25450
C562        C  0.84774734  0.39959172  0.60244049    -0.22660
C563        C  0.84411271  0.37616245  0.64089807     0.20360
C564        C  0.82706950  0.37045772  0.68974361     0.25390
C565        C  0.81325049  0.38800857  0.70123263    -0.22600
C566        C  0.81806541  0.41250729  0.66359516     0.20300
F567        F  0.80649456  0.43112169  0.67449426    -0.12560
F568        F  0.83898249  0.44160141  0.57878148    -0.14920
F569        F  0.82255935  0.34641701  0.72493470    -0.14920
F570        F  0.85595412  0.35773937  0.63036988    -0.12560
C571        C  0.85925334  0.42536817  0.86655320     0.25450
C572        C  0.84491784  0.39642338  0.90221715    -0.22660
C573        C  0.81358259  0.36124751  0.88768184     0.20360
C574        C  0.79678715  0.35509607  0.83827139     0.25390
C575        C  0.81025059  0.38430831  0.80334385    -0.22600
C576        C  0.84193554  0.41940975  0.81774059     0.20300
F577        F  0.85588022  0.44804825  0.78468866    -0.12560
F578        F  0.88985502  0.45952433  0.87937263    -0.14920
F579        F  0.76807352  0.32044564  0.82388448    -0.14920
F580        F  0.79995670  0.33267320  0.92070112    -0.12560
C581        C  0.05495769  0.43915267  0.83736227     0.25450
C582        C  0.06016758  0.46384021  0.79977464    -0.22660
C583        C  0.04736104  0.48230679  0.81160149     0.20360
C584        C  0.03064511  0.47705067  0.86061371     0.25390
C585        C  0.02632103  0.45314256  0.89884029    -0.22600
C586        C  0.03843672  0.43406126  0.88659902     0.20300
F587        F  0.03360445  0.40993021  0.92196135    -0.12560
F588        F  0.06576782  0.41988047  0.82625689    -0.14920
F589        F  0.01966252  0.49621687  0.87140596    -0.14920
F590        F  0.05236401  0.50662358  0.77647954    -0.12560
C591        C  0.01512815  0.42339316  0.63274870     0.25450
C592        C  0.02708250  0.45245493  0.59879936    -0.22660
C593        C  0.05619915  0.48822888  0.61498029     0.20360
C594        C  0.07325957  0.49487094  0.66424607     0.25390
C595        C  0.06206679  0.46574873  0.69761904    -0.22600
C596        C  0.03262056  0.42998606  0.68166241     0.20300
F597        F  0.02112827  0.40142419  0.71325174    -0.12560
F598        F  0.98674355  0.38862831  0.61818663    -0.14920
F599        F  0.10004140  0.52978708  0.68000261    -0.14920
F600        F  0.06739018  0.51679001  0.58362881    -0.12560
C601        C  0.35736078  0.56697156  0.84793918     0.25450
C602        C  0.32875602  0.54075337  0.88243813    -0.22660
C603        C  0.31200615  0.50380559  0.87513620     0.20360
C604        C  0.32259967  0.49335365  0.83313729     0.25390
C605        C  0.35038339  0.51955998  0.79816885    -0.22600
C606        C  0.36801135  0.55641577  0.80645751     0.20300
F607        F  0.39521292  0.58232828  0.77350665    -0.12560
F608        F  0.37472590  0.60292710  0.85330127    -0.14920
F609        F  0.30443172  0.45744563  0.82502400    -0.14920
F610        F  0.28465371  0.47751012  0.90758014    -0.12560
C611        C  0.29800226  0.50379923  0.64579848     0.25450
C612        C  0.32365479  0.53457943  0.61398246    -0.22660
C613        C  0.36107767  0.55429942  0.62351110     0.20360
C614        C  0.37239534  0.54456609  0.66539938     0.25390
C615        C  0.34666011  0.51501446  0.69842783    -0.22600
C616        C  0.30948787  0.49428468  0.68764980     0.20300
F617        F  0.28419111  0.46526947  0.71875482    -0.12560
F618        F  0.26168854  0.48319032  0.63740010    -0.14920
F619        F  0.40850959  0.56532515  0.67556802    -0.14920
F620        F  0.38691822  0.58389232  0.59372952    -0.12560
C621        C  0.15107527  0.47831395  0.81175615     0.25450
C622        C  0.13649446  0.49522011  0.80125082    -0.22660
C623        C  0.14565968  0.52343555  0.83458507     0.20360
C624        C  0.17019965  0.53560880  0.87650762     0.25390
C625        C  0.18601183  0.51962126  0.88611111    -0.22600
C626        C  0.17546356  0.49022540  0.85392295     0.20300
F627        F  0.18912579  0.47331283  0.86251260    -0.12560
F628        F  0.14219478  0.45063662  0.78035249    -0.14920
F629        F  0.17965522  0.56424037  0.90600947    -0.14920
F630        F  0.13257850  0.54075560  0.82455631    -0.12560
C631        C  0.16250539  0.48927541  0.62630585     0.25450
C632        C  0.19033518  0.52717443  0.61880527    -0.22660
C633        C  0.19149392  0.55118157  0.65288687     0.20360
C634        C  0.16643684  0.53777916  0.69410976     0.25390
C635        C  0.13921380  0.50017617  0.70200454    -0.22600
C636        C  0.13705746  0.47595400  0.66749558     0.20300
F637        F  0.11121158  0.43947634  0.67502191    -0.12560
F638        F  0.16019712  0.46501661  0.59460157    -0.14920
F639        F  0.16897166  0.56177720  0.72681881    -0.14920
F640        F  0.21719163  0.58785733  0.64715173    -0.12560
C641        C  0.38155473  0.71008530  0.68892210     0.25450
C642        C  0.36578013  0.72608413  0.69686629    -0.22660
C643        C  0.33942937  0.71853878  0.66075740     0.20360
C644        C  0.32800891  0.69435933  0.61861605     0.25390
C645        C  0.34237069  0.67669790  0.61202438    -0.22600
C646        C  0.37003905  0.68564782  0.64692423     0.20300
F647        F  0.38527423  0.67003077  0.64159420    -0.12560
F648        F  0.40720284  0.71710440  0.72331403    -0.14920
F649        F  0.30142045  0.68695343  0.58603868    -0.14920
F650        F  0.32242919  0.73214021  0.66884548    -0.12560
C651        C  0.32205580  0.68961636  0.79809878     0.25450
C652        C  0.35885795  0.72130545  0.79592927    -0.22660
C653        C  0.38270412  0.72789589  0.83622729     0.20360
C654        C  0.36987526  0.70290987  0.87795394     0.25390
C655        C  0.33297137  0.67079672  0.87965647    -0.22600
C656        C  0.30926170  0.66464343  0.83921697     0.20300
F657        F  0.27362418  0.63404070  0.83854881    -0.12560
F658        F  0.29822003  0.68274647  0.76011115    -0.14920
F659        F  0.39361987  0.71019770  0.91645774    -0.14920
F660        F  0.41853514  0.75790723  0.83428138    -0.12560
C661        C  0.36310013  0.45059269  0.81947000     0.25450
C662        C  0.38404661  0.48638637  0.80024433    -0.22660
C663        C  0.41348807  0.51522700  0.83089191     0.20360
C664        C  0.42165683  0.50830698  0.88023296     0.25390
C665        C  0.40034699  0.47252586  0.89957821    -0.22600
C666        C  0.37112581  0.44374527  0.86882657     0.20300
F667        F  0.35002807  0.40901497  0.88714489    -0.12560
F668        F  0.33409030  0.42234965  0.79127438    -0.14920
F669        F  0.45059587  0.53636555  0.90881699    -0.14920
F670        F  0.43428019  0.55000027  0.81292761    -0.12560
C671        C  0.42521978  0.50091476  0.62796002     0.25450
C672        C  0.39751780  0.46985406  0.59877606    -0.22660
C673        C  0.36215620  0.44577521  0.61981287     0.20360
C674        C  0.35442393  0.45311519  0.66912313     0.25390
C675        C  0.38218357  0.48424924  0.69839796    -0.22600
C676        C  0.41767129  0.50793443  0.67762313     0.20300
F677        F  0.44477785  0.53844593  0.70475802    -0.12560
F678        F  0.45952465  0.52453736  0.60803628    -0.14920
F679        F  0.31987572  0.42999258  0.68818499    -0.14920
F680        F  0.33527988  0.41511312  0.59268792    -0.12560
C681        C  0.42526591  0.83135081  0.81606391     0.25450
C682        C  0.39078968  0.79843888  0.80249134    -0.22660
C683        C  0.36161471  0.78367150  0.83818410     0.20360
C684        C  0.36736285  0.80039627  0.88756502     0.25390
C685        C  0.40197845  0.83296259  0.90126236    -0.22600
C686        C  0.43073952  0.84856297  0.86476192     0.20300
F687        F  0.46436171  0.88026142  0.87675538    -0.12560
F688        F  0.45386572  0.84659752  0.78237709    -0.14920
F689        F  0.33888424  0.78540605  0.92140105    -0.14920
F690        F  0.32734179  0.75365747  0.82467216    -0.12560
C691        C  0.42586700  0.82456330  0.61459583     0.25450
C692        C  0.40584730  0.83546691  0.60149771    -0.22660
C693        C  0.38100858  0.83012053  0.63882304     0.20360
C694        C  0.37559827  0.81336497  0.68782755     0.25390
C695        C  0.39484803  0.80153884  0.70047062    -0.22600
C696        C  0.42064149  0.80799988  0.66388693     0.20300
F697        F  0.44066683  0.79817573  0.67592914    -0.12560
F698        F  0.45085012  0.83048033  0.57995462    -0.14920
F699        F  0.35018901  0.80704666  0.72195203    -0.14920
F700        F  0.36107353  0.84009552  0.62701170    -0.12560
loop_ 
_geom_bond_atom_site_label_1 
_geom_bond_atom_site_label_2 
_geom_bond_distance 
_geom_bond_site_symmetry_2 
_ccdc_geom_bond_type 
C1            C2   1.403       .  A
C1            C6   1.402       .  A
C1          C342   1.484       .  S
C2          C353   1.416       .  A
C2            H7   1.077       .  S
C3            C4   1.418       .  A
C3          C352   1.416       .  A
C3          C454   1.519       .  S
C4            C5   1.404       .  A
C4            H8   1.077       .  S
C5          C356   1.402       .  A
C5          C335   1.485       .  S
C6          C355   1.402   1_554  A
C6          H359   1.083       .  S
H9          C356   1.083       .  S
C10          C15   1.402       .  A
C10         C361   1.398       .  A
C10         C315   1.477       .  S
C11          C12   1.398   1_556  A
C11         C360   1.398       .  A
C11          H16   1.083       .  S
C12          C13   1.401       .  A
C12         C322   1.475       .  S
C13          C14   1.417   1_554  A
C13          H17   1.076       .  S
C14         C365   1.417       .  A
C14          C69   1.518       .  S
C15         C364   1.417       .  A
C15          H18   1.076       .  S
C19          C20   1.369       .  D
C19         C332   1.499       .  S
C19         C345   1.495       .  S
C20         C292   1.489       .  S
C20         C302   1.485       .  S
O21         Cr39   1.963   1_554  S
O21          C29   1.260       .  A
O22         Cr39   1.994   1_554  S
O22          C23   1.261       .  A
C23         C295   1.485       .  S
C23          O24   1.261       .  A
O24         Cr40   1.983   1_554  S
O25         Cr40   2.006   1_554  S
O25          C26   1.266       .  A
C26         C262   1.485       .  S
C26          O27   1.260       .  A
O27         Cr41   1.969   1_554  S
O28         Cr41   2.017   1_554  S
O28          C29   1.269       .  A
C29         C282   1.485       .  S
O30        Cr389   1.995       .  S
O30          C38   1.261       .  A
O31        Cr389   1.962       .  S
O31          C32   1.260       .  A
C32         C305   1.481       .  S
C32          O33   1.268       .  A
O33        Cr390   2.014       .  S
O34        Cr390   1.968       .  S
O34          C35   1.260       .  A
C35         C252   1.486       .  S
C35          O36   1.266       .  A
O36        Cr391   2.009       .  S
O37        Cr391   1.982       .  S
O37          C38   1.261       .  A
C38         C275   1.483       .  S
Cr39        O380   1.995       .  S
Cr39        O381   1.962       .  S
Cr39         O42   1.761       .  S
Cr40        O383   2.014       .  S
Cr40        O384   1.968       .  S
Cr40         O42   1.768       .  S
Cr41        O386   2.009       .  S
Cr41        O387   1.982       .  S
Cr41         O42   1.769       .  S
C43          C44   1.360       .  D
C43         C312   1.487       .  S
C43         C325   1.486       .  S
C44         C255   1.484       .  S
C44         C265   1.482       .  S
C45          C46   1.365       .  D
C45         C272   1.484       .  S
C45         C285   1.483       .  S
C46         C232   1.494       .  S
C46         C245   1.493       .  S
C47          C48   1.401       .  A
C47          C52   1.405   1_455  A
C47         C235   1.487       .  S
C48         C399   1.400       .  A
C48          H53   1.083       .  S
C49          C50   1.403   1_455  A
C49         C398   1.400   1_554  A
C49         C242   1.481       .  S
C50         C401   1.418       .  A
C50          H54   1.077       .  S
C51          C52   1.418       .  A
C51         C400   1.418       .  A
C51          C58   1.522       .  S
C52          H55   1.075       .  S
C56          C57   1.405       .  A
C56          C61   1.402       .  A
C56         C212   1.487       .  S
C57         C408   1.417       .  A
C57          H62   1.076       .  S
C58          C59   1.418       .  A
C58         C407   1.417       .  A
C59          C60   1.403       .  A
C59          H63   1.076       .  S
C60         C411   1.401       .  A
C60         C222   1.483       .  S
C61         C410   1.401   1_554  A
C61          H64   1.083       .  S
C65          C66   1.400   1_554  A
C65          C70   1.402       .  A
C65         C192   1.481       .  S
C66         C417   1.400       .  A
C66          H71   1.083   1_556  S
C67          C68   1.402       .  A
C67         C416   1.400       .  A
C67         C205   1.480       .  S
C68         C419   1.416       .  A
C68          H72   1.076       .  S
C69          C70   1.417   1_556  A
C69         C418   1.416       .  A
C70          H73   1.076       .  S
C74          C75   1.368       .  D
C74         C215   1.496       .  S
C74         C225   1.497       .  S
C75         C172   1.484       .  S
C75         C185   1.487       .  S
C76          C77   1.363       .  D
C76         C155   1.481       .  S
C76         C162   1.482       .  S
C77         C195   1.492       .  S
C77         C202   1.490       .  S
O78         Cr96   1.994       .  S
O78          C86   1.260       .  A
O79         Cr96   1.966       .  S
O79          C80   1.261       .  A
C80         C145   1.485       .  S
C80          O81   1.268       .  A
O81        Cr447   2.014       .  S
O82        Cr447   1.972       .  S
O82          C83   1.260       .  A
C83         C152   1.470       .  S
C83          O84   1.264       .  A
O84         Cr98   1.997   1_554  S
O85         Cr98   1.982   1_554  S
O85          C86   1.260       .  A
C86         C182   1.485       .  S
O87        Cr446   1.965       .  S
O87          C95   1.261       .  A
O88        Cr446   1.994       .  S
O88          C89   1.261       .  A
C89         C135   1.483       .  S
C89          O90   1.260       .  A
O90         Cr97   1.982       .  S
O91         Cr97   1.998       .  S
O91          C92   1.265       .  A
C92         C165   1.472       .  S
C92          O93   1.260       .  A
O93        Cr448   1.972       .  S
O94        Cr448   2.013       .  S
O94          C95   1.268       .  A
C95         C175   1.484       .  S
Cr96        O437   1.965   1_554  S
Cr96        O438   1.994   1_554  S
Cr96         O99   1.765       .  S
Cr97        O431   2.014       .  S
Cr97        O432   1.972       .  S
Cr97        O449   1.773       .  S
Cr98        O443   1.972       .  S
Cr98        O444   2.013       .  S
Cr98         O99   1.772   1_556  S
O99        Cr447   1.773       .  S
C100        C101   1.364       .  D
C100        C132   1.484       .  S
C100        C142   1.482       .  S
C101        C112   1.491       .  S
C101        C125   1.494       .  S
C102        C103   1.403       .  A
C102        C107   1.400   1_565  A
C102        C122   1.483   1_565  S
C103        C104   1.419       .  A
C103        H108   1.077       .  S
C104        C455   1.417   1_554  A
C104        C353   1.519       .  S
C105        C106   1.404       .  A
C105        C454   1.417       .  A
C105        H109   1.077       .  S
C106        C457   1.401   1_565  A
C106        C115   1.484   1_565  S
C107        C456   1.401   1_544  A
C107        H110   1.083       .  S
C111        C112   1.406       .  A
C111        C116   1.401       .  A
C111        F118   1.357       .  S
C112        C113   1.405       .  A
C113        C114   1.400       .  A
C113        F120   1.357       .  S
C114        C115   1.406       .  A
C114        F119   1.358       .  S
C115        C116   1.406       .  A
C116        F117   1.358       .  S
C121        C122   1.405       .  A
C121        C126   1.400       .  A
C121        F128   1.358       .  S
C122        C123   1.405       .  A
C123        C124   1.403       .  A
C123        F130   1.357   1_545  S
C124        C125   1.407       .  A
C124        F129   1.357       .  S
C125        C126   1.407       .  A
C126        F127   1.356       .  S
C131        C132   1.404       .  A
C131        C136   1.398       .  A
C131        F138   1.357       .  S
C132        C133   1.401       .  A
C133        C134   1.395       .  A
C133        F140   1.357       .  S
C134        C135   1.413       .  A
C134        F139   1.358       .  S
C135        C136   1.408       .  A
C136        F137   1.358       .  S
C141        C142   1.401       .  A
C141        C146   1.401       .  A
C141        F148   1.357       .  S
C142        C143   1.403       .  A
C143        C144   1.392       .  A
C143        F150   1.357       .  S
C144        C145   1.410       .  A
C144        F149   1.358       .  S
C145        C146   1.414       .  A
C146        F147   1.358       .  S
C151        C152   1.407       .  A
C151        C156   1.399       .  A
C151        F158   1.358       .  S
C152        C153   1.404       .  A
C153        C154   1.393       .  A
C153        F160   1.358       .  S
C154        C155   1.404       .  A
C154        F159   1.357       .  S
C155        C156   1.404       .  A
C156        F157   1.357       .  S
C161        C162   1.404       .  A
C161        C166   1.399       .  A
C161        F168   1.357       .  S
C162        C163   1.404       .  A
C163        C164   1.394       .  A
C163        F170   1.357       .  S
C164        C165   1.405       .  A
C164        F169   1.358       .  S
C165        C166   1.407       .  A
C166        F167   1.358       .  S
C171        C172   1.404       .  A
C171        C176   1.391       .  A
C171        F178   1.358       .  S
C172        C173   1.402       .  A
C173        C174   1.401       .  A
C173        F180   1.357       .  S
C174        C175   1.414       .  A
C174        F179   1.358       .  S
C175        C176   1.409       .  A
C176        F177   1.358       .  S
C181        C182   1.409       .  A
C181        C186   1.397       .  A
C181        F188   1.358       .  S
C182        C183   1.414       .  A
C183        C184   1.395       .  A
C183        F190   1.358       .  S
C184        C185   1.402       .  A
C184        F189   1.357       .  S
C185        C186   1.405       .  A
C186        F187   1.358       .  S
C191        C192   1.404       .  A
C191        C196   1.400       .  A
C191        F198   1.358       .  S
C192        C193   1.406       .  A
C193        C194   1.400       .  A
C193        F200   1.358       .  S
C194        C195   1.405       .  A
C194        F199   1.357       .  S
C195        C196   1.408       .  A
C196        F197   1.356       .  S
C201        C202   1.404       .  A
C201        C206   1.400       .  A
C201        F208   1.358       .  S
C202        C203   1.408       .  A
C203        C204   1.400       .  A
C203        F210   1.357       .  S
C204        C205   1.404       .  A
C204        F209   1.358       .  S
C205        C206   1.406       .  A
C206        F207   1.358       .  S
C211        C212   1.407       .  A
C211        C216   1.403       .  A
C211        F218   1.358       .  S
C212        C213   1.407       .  A
C213        C214   1.399       .  A
C213        F220   1.358       .  S
C214        C215   1.406       .  A
C214        F219   1.358       .  S
C215        C216   1.409       .  A
C216        F217   1.357       .  S
C221        C222   1.406       .  A
C221        C226   1.401       .  A
C221        F228   1.358       .  S
C222        C223   1.404       .  A
C223        C224   1.401       .  A
C223        F230   1.358       .  S
C224        C225   1.410       .  A
C224        F229   1.356       .  S
C225        C226   1.406       .  A
C226        F227   1.358       .  S
C231        C232   1.408       .  A
C231        C236   1.402       .  A
C231        F238   1.357       .  S
C232        C233   1.406       .  A
C233        C234   1.400       .  A
C233        F240   1.357       .  S
C234        C235   1.407       .  A
C234        F239   1.358       .  S
C235        C236   1.407       .  A
C236        F237   1.358       .  S
C241        C242   1.405       .  A
C241        C246   1.402       .  A
C241        F248   1.357   1_455  S
C242        C243   1.404       .  A
C243        C244   1.400       .  A
C243        F250   1.358       .  S
C244        C245   1.408       .  A
C244        F249   1.356       .  S
C245        C246   1.406       .  A
C246        F247   1.358       .  S
C251        C252   1.411       .  A
C251        C256   1.394       .  A
C251        F258   1.358       .  S
C252        C253   1.413       .  A
C253        C254   1.399       .  A
C253        F260   1.358       .  S
C254        C255   1.403       .  A
C254        F259   1.357       .  S
C255        C256   1.402       .  A
C256        F257   1.357       .  S
C261        C262   1.411       .  A
C261        C266   1.395       .  A
C261        F268   1.358       .  S
C262        C263   1.412       .  A
C263        C264   1.397       .  A
C263        F270   1.358       .  S
C264        C265   1.402       .  A
C264        F269   1.357       .  S
C265        C266   1.401       .  A
C266        F267   1.358       .  S
C271        C272   1.405       .  A
C271        C276   1.397       .  A
C271        F278   1.357       .  S
C272        C273   1.401       .  A
C273        C274   1.395       .  A
C273        F280   1.358       .  S
C274        C275   1.413       .  A
C274        F279   1.358       .  S
C275        C276   1.408       .  A
C276        F277   1.358       .  S
C281        C282   1.414       .  A
C281        C286   1.402       .  A
C281        F288   1.357       .  S
C282        C283   1.410       .  A
C283        C284   1.391       .  A
C283        F290   1.358       .  S
C284        C285   1.402       .  A
C284        F289   1.357       .  S
C285        C286   1.402       .  A
C286        F287   1.357       .  S
C291        C292   1.406       .  A
C291        C296   1.398       .  A
C291        F298   1.358       .  S
C292        C293   1.402       .  A
C293        C294   1.394       .  A
C293        F300   1.357       .  S
C294        C295   1.414       .  A
C294        F299   1.358       .  S
C295        C296   1.409       .  A
C296        F297   1.358       .  S
C301        C302   1.405       .  A
C301        C306   1.390       .  A
C301        F308   1.357       .  S
C302        C303   1.403       .  A
C303        C304   1.401       .  A
C303        F310   1.357       .  S
C304        C305   1.413       .  A
C304        F309   1.358       .  S
C305        C306   1.408       .  A
C306        F307   1.358       .  S
C311        C312   1.405       .  A
C311        C316   1.398       .  A
C311        F318   1.357       .  S
C312        C313   1.407       .  A
C313        C314   1.402       .  A
C313        F320   1.357       .  S
C314        C315   1.404       .  A
C314        F319   1.357       .  S
C315        C316   1.403       .  A
C316        F317   1.358       .  S
C321        C322   1.403       .  A
C321        C326   1.398       .  A
C321        F328   1.358       .  S
C322        C323   1.404       .  A
C323        C324   1.401       .  A
C323        F330   1.358       .  S
C324        C325   1.406       .  A
C324        F329   1.357       .  S
C325        C326   1.405       .  A
C326        F327   1.357       .  S
C331        C332   1.407       .  A
C331        C336   1.401       .  A
C331        F338   1.358       .  S
C332        C333   1.411       .  A
C333        C334   1.403       .  A
C333        F340   1.357       .  S
C334        C335   1.405       .  A
C334        F339   1.358       .  S
C335        C336   1.406       .  A
C336        F337   1.358       .  S
C341        C342   1.406       .  A
C341        C346   1.402       .  A
C341        F348   1.357       .  S
C342        C343   1.406       .  A
C343        C344   1.399       .  A
C343        F350   1.358       .  S
C344        C345   1.405       .  A
C344        F349   1.358       .  S
C345        C346   1.409       .  A
C346        F347   1.357       .  S
C351        C352   1.403       .  A
C351        C356   1.402       .  A
C351        C692   1.484       .  S
C352        H357   1.077       .  S
C353        C354   1.418   1_554  A
C354        C355   1.404       .  A
C354        H358   1.077       .  S
C355        C685   1.485       .  S
C360        C365   1.402       .  A
C360        C665   1.477       .  S
C361        C362   1.398       .  A
C361        H366   1.083       .  S
C362        C363   1.401       .  A
C362        C672   1.475       .  S
C363        C364   1.417       .  A
C363        H367   1.076       .  S
C364        C419   1.518       .  S
C365        H368   1.076       .  S
C369        C370   1.369       .  D
C369        C682   1.499       .  S
C369        C695   1.495       .  S
C370        C642   1.489       .  S
C370        C652   1.485       .  S
O371       Cr389   1.963       .  S
O371        C379   1.260       .  A
O372       Cr389   1.994       .  S
O372        C373   1.261       .  A
C373        C645   1.485       .  S
C373        O374   1.261       .  A
O374       Cr390   1.983       .  S
O375       Cr390   2.006       .  S
O375        C376   1.266       .  A
C376        C612   1.485       .  S
C376        O377   1.260       .  A
O377       Cr391   1.969       .  S
O378       Cr391   2.017       .  S
O378        C379   1.269       .  A
C379        C632   1.485       .  S
O380        C388   1.261       .  A
O381        C382   1.260       .  A
C382        C655   1.481       .  S
C382        O383   1.268       .  A
O384        C385   1.260       .  A
C385        C602   1.486       .  S
C385        O386   1.266       .  A
O387        C388   1.261       .  A
C388        C625   1.483       .  S
Cr389       O392   1.761       .  S
Cr390       O392   1.768       .  S
Cr391       O392   1.769       .  S
C393        C394   1.360       .  D
C393        C662   1.487       .  S
C393        C675   1.486       .  S
C394        C605   1.484       .  S
C394        C615   1.482       .  S
C395        C396   1.365       .  D
C395        C622   1.484       .  S
C395        C635   1.483       .  S
C396        C582   1.494       .  S
C396        C595   1.493       .  S
C397        C398   1.401       .  A
C397        C402   1.405   1_455  A
C397        C585   1.487       .  S
C398        H403   1.083       .  S
C399        C400   1.403   1_455  A
C399        C592   1.482       .  S
C400        H404   1.077       .  S
C401        C402   1.418   1_554  A
C401        C408   1.522       .  S
C402        H405   1.075       .  S
C406        C407   1.405       .  A
C406        C411   1.402       .  A
C406        C562   1.487       .  S
C407        H412   1.076       .  S
C408        C409   1.418   1_554  A
C409        C410   1.403       .  A
C409        H413   1.076       .  S
C410        C572   1.483       .  S
C411        H414   1.083       .  S
C415        C416   1.400       .  A
C415        C420   1.402       .  A
C415        C542   1.481       .  S
C416        H421   1.083       .  S
C417        C418   1.402       .  A
C417        C555   1.480       .  S
C418        H422   1.076       .  S
C419        C420   1.417       .  A
C420        H423   1.076       .  S
C424        C425   1.368       .  D
C424        C565   1.496       .  S
C424        C575   1.497       .  S
C425        C522   1.485       .  S
C425        C535   1.487       .  S
C426        C427   1.363       .  D
C426        C505   1.481       .  S
C426        C512   1.482       .  S
C427        C545   1.492       .  S
C427        C552   1.490       .  S
O428       Cr446   1.994       .  S
O428        C436   1.260       .  A
O429       Cr446   1.966       .  S
O429        C430   1.261       .  A
C430        C495   1.485       .  S
C430        O431   1.268       .  A
O432        C433   1.260       .  A
C433        C502   1.470       .  S
C433        O434   1.264       .  A
O434       Cr448   1.997       .  S
O435       Cr448   1.982       .  S
O435        C436   1.260       .  A
C436        C532   1.485       .  S
O437        C445   1.261       .  A
O438        C439   1.261       .  A
C439        C485   1.483       .  S
C439        O440   1.260       .  A
O440       Cr447   1.982   1_556  S
O441       Cr447   1.998   1_556  S
O441        C442   1.265       .  A
C442        C515   1.472       .  S
C442        O443   1.260       .  A
O444        C445   1.268       .  A
C445        C525   1.484       .  S
Cr446       O449   1.764       .  S
Cr448       O449   1.772       .  S
C450        C451   1.364       .  D
C450        C482   1.484       .  S
C450        C492   1.482       .  S
C451        C462   1.491       .  S
C451        C475   1.493       .  S
C452        C453   1.403       .  A
C452        C457   1.400   1_565  A
C452        C472   1.483   1_565  S
C453        C454   1.419       .  A
C453        H458   1.077       .  S
C455        C456   1.404       .  A
C455        H459   1.077       .  S
C456        C465   1.484   1_565  S
C457        H460   1.083       .  S
C461        C462   1.406       .  A
C461        C466   1.401       .  A
C461        F468   1.357       .  S
C462        C463   1.405       .  A
C463        C464   1.400       .  A
C463        F470   1.357       .  S
C464        C465   1.406       .  A
C464        F469   1.358       .  S
C465        C466   1.406       .  A
C466        F467   1.358       .  S
C471        C472   1.405       .  A
C471        C476   1.400       .  A
C471        F478   1.358       .  S
C472        C473   1.405       .  A
C473        C474   1.403       .  A
C473        F480   1.357   1_545  S
C474        C475   1.407       .  A
C474        F479   1.357       .  S
C475        C476   1.407       .  A
C476        F477   1.356       .  S
C481        C482   1.404       .  A
C481        C486   1.398       .  A
C481        F488   1.357       .  S
C482        C483   1.401       .  A
C483        C484   1.395       .  A
C483        F490   1.357       .  S
C484        C485   1.413       .  A
C484        F489   1.358       .  S
C485        C486   1.408       .  A
C486        F487   1.358       .  S
C491        C492   1.401       .  A
C491        C496   1.401       .  A
C491        F498   1.357       .  S
C492        C493   1.403       .  A
C493        C494   1.392       .  A
C493        F500   1.357       .  S
C494        C495   1.410       .  A
C494        F499   1.358       .  S
C495        C496   1.414       .  A
C496        F497   1.358       .  S
C501        C502   1.407       .  A
C501        C506   1.399       .  A
C501        F508   1.358       .  S
C502        C503   1.404       .  A
C503        C504   1.393       .  A
C503        F510   1.358       .  S
C504        C505   1.404       .  A
C504        F509   1.357       .  S
C505        C506   1.404       .  A
C506        F507   1.357       .  S
C511        C512   1.404       .  A
C511        C516   1.399       .  A
C511        F518   1.357       .  S
C512        C513   1.404       .  A
C513        C514   1.394       .  A
C513        F520   1.357       .  S
C514        C515   1.405       .  A
C514        F519   1.358       .  S
C515        C516   1.407       .  A
C516        F517   1.358       .  S
C521        C522   1.404       .  A
C521        C526   1.391       .  A
C521        F528   1.358       .  S
C522        C523   1.402       .  A
C523        C524   1.401       .  A
C523        F530   1.357       .  S
C524        C525   1.414       .  A
C524        F529   1.358       .  S
C525        C526   1.409       .  A
C526        F527   1.358       .  S
C531        C532   1.409       .  A
C531        C536   1.397       .  A
C531        F538   1.358       .  S
C532        C533   1.414       .  A
C533        C534   1.395       .  A
C533        F540   1.358       .  S
C534        C535   1.402       .  A
C534        F539   1.357       .  S
C535        C536   1.405       .  A
C536        F537   1.358       .  S
C541        C542   1.404       .  A
C541        C546   1.400       .  A
C541        F548   1.358       .  S
C542        C543   1.406       .  A
C543        C544   1.400       .  A
C543        F550   1.358       .  S
C544        C545   1.405       .  A
C544        F549   1.357       .  S
C545        C546   1.408       .  A
C546        F547   1.356       .  S
C551        C552   1.404       .  A
C551        C556   1.400       .  A
C551        F558   1.358       .  S
C552        C553   1.408       .  A
C553        C554   1.400       .  A
C553        F560   1.357       .  S
C554        C555   1.404       .  A
C554        F559   1.358       .  S
C555        C556   1.406       .  A
C556        F557   1.358       .  S
C561        C562   1.407       .  A
C561        C566   1.403       .  A
C561        F568   1.358       .  S
C562        C563   1.407       .  A
C563        C564   1.399       .  A
C563        F570   1.358       .  S
C564        C565   1.406       .  A
C564        F569   1.358       .  S
C565        C566   1.409       .  A
C566        F567   1.357       .  S
C571        C572   1.406       .  A
C571        C576   1.401       .  A
C571        F578   1.358       .  S
C572        C573   1.404       .  A
C573        C574   1.401       .  A
C573        F580   1.358       .  S
C574        C575   1.410       .  A
C574        F579   1.356       .  S
C575        C576   1.406       .  A
C576        F577   1.358       .  S
C581        C582   1.408       .  A
C581        C586   1.402       .  A
C581        F588   1.357       .  S
C582        C583   1.406       .  A
C583        C584   1.400       .  A
C583        F590   1.357       .  S
C584        C585   1.407       .  A
C584        F589   1.358       .  S
C585        C586   1.407       .  A
C586        F587   1.358       .  S
C591        C592   1.405       .  A
C591        C596   1.402       .  A
C591        F598   1.357   1_455  S
C592        C593   1.404       .  A
C593        C594   1.400       .  A
C593        F600   1.358       .  S
C594        C595   1.408       .  A
C594        F599   1.356       .  S
C595        C596   1.406       .  A
C596        F597   1.358       .  S
C601        C602   1.411       .  A
C601        C606   1.394       .  A
C601        F608   1.358       .  S
C602        C603   1.413       .  A
C603        C604   1.399       .  A
C603        F610   1.358       .  S
C604        C605   1.403       .  A
C604        F609   1.357       .  S
C605        C606   1.402       .  A
C606        F607   1.357       .  S
C611        C612   1.411       .  A
C611        C616   1.395       .  A
C611        F618   1.358       .  S
C612        C613   1.412       .  A
C613        C614   1.397       .  A
C613        F620   1.358       .  S
C614        C615   1.402       .  A
C614        F619   1.357       .  S
C615        C616   1.401       .  A
C616        F617   1.358       .  S
C621        C622   1.405       .  A
C621        C626   1.397       .  A
C621        F628   1.357       .  S
C622        C623   1.401       .  A
C623        C624   1.395       .  A
C623        F630   1.358       .  S
C624        C625   1.413       .  A
C624        F629   1.358       .  S
C625        C626   1.408       .  A
C626        F627   1.358       .  S
C631        C632   1.414       .  A
C631        C636   1.402       .  A
C631        F638   1.357       .  S
C632        C633   1.410       .  A
C633        C634   1.391       .  A
C633        F640   1.358       .  S
C634        C635   1.402       .  A
C634        F639   1.357       .  S
C635        C636   1.402       .  A
C636        F637   1.357       .  S
C641        C642   1.406       .  A
C641        C646   1.398       .  A
C641        F648   1.358       .  S
C642        C643   1.402       .  A
C643        C644   1.394       .  A
C643        F650   1.357       .  S
C644        C645   1.414       .  A
C644        F649   1.358       .  S
C645        C646   1.409       .  A
C646        F647   1.358       .  S
C651        C652   1.405       .  A
C651        C656   1.390       .  A
C651        F658   1.357       .  S
C652        C653   1.403       .  A
C653        C654   1.401       .  A
C653        F660   1.357       .  S
C654        C655   1.413       .  A
C654        F659   1.358       .  S
C655        C656   1.408       .  A
C656        F657   1.358       .  S
C661        C662   1.405       .  A
C661        C666   1.398       .  A
C661        F668   1.357       .  S
C662        C663   1.407       .  A
C663        C664   1.402       .  A
C663        F670   1.357       .  S
C664        C665   1.404       .  A
C664        F669   1.357       .  S
C665        C666   1.403       .  A
C666        F667   1.358       .  S
C671        C672   1.403       .  A
C671        C676   1.398       .  A
C671        F678   1.358       .  S
C672        C673   1.404       .  A
C673        C674   1.401       .  A
C673        F680   1.358       .  S
C674        C675   1.406       .  A
C674        F679   1.357       .  S
C675        C676   1.405       .  A
C676        F677   1.357       .  S
C681        C682   1.407       .  A
C681        C686   1.401       .  A
C681        F688   1.358       .  S
C682        C683   1.411       .  A
C683        C684   1.403       .  A
C683        F690   1.357       .  S
C684        C685   1.405       .  A
C684        F689   1.358       .  S
C685        C686   1.406       .  A
C686        F687   1.358       .  S
C691        C692   1.406       .  A
C691        C696   1.402       .  A
C691        F698   1.357       .  S
C692        C693   1.406       .  A
C693        C694   1.399       .  A
C693        F700   1.358       .  S
C694        C695   1.405       .  A
C694        F699   1.358       .  S
C695        C696   1.409       .  A
C696        F697   1.357       .  S
