geometry optimzed in LAMMPS
_audit_creation_date              2020-12-01 
_audit_creation_method            'lammps2cif' 
_symmetry_space_group_name_H-M    'P1' 
_symmetry_Int_Tables_number       1 
_symmetry_cell_setting            triclinic 
loop_ 
_symmetry_equiv_pos_as_xyz 
  x,y,z 
_cell_length_a                    26.86197638 
_cell_length_b                    26.880788416452027 
_cell_length_c                    39.864738137623576 
_cell_angle_alpha                 89.90362949354515 
_cell_angle_beta                  90.14451236953425 
_cell_angle_gamma                 66.53547732727814 
loop_ 
_atom_site_label 
_atom_site_type_symbol 
_atom_site_fract_x 
_atom_site_fract_y 
_atom_site_fract_z 
_atom_site_charge 
O1          O  0.14684322  0.94358186  0.06655185    -0.74600
O2          O  0.14109944  0.01834065  0.03675143    -0.53600
C3          C  0.16374039  0.98067925  0.05848170     0.79100
O4          O  0.04358093  0.84898161  0.43010246    -0.59200
O5          O  0.97023354  0.85176046  0.46012587    -0.52300
C6          C  0.00674546  0.83153610  0.43743679     0.71100
O7          O  0.14398855  0.94907344  0.43290033    -0.73800
O8          O  0.14051354  0.02040622  0.46523600    -0.54400
C9          C  0.16137586  0.98528851  0.44193737     0.77100
O10         O  0.03882438  0.84844406  0.06954314    -0.59000
O11         O  0.96983417  0.84877361  0.03577796    -0.52100
C12         C  0.00299201  0.83031659  0.06045397     0.73700
Zr13       Zr  0.07355718  0.91551384  0.05037410     2.54700
O14         O  0.15419769  0.83142172  0.04758192    -0.79500
O15         O  0.07719491  0.91402814  0.11148318    -0.92900
Zr16       Zr  0.07342970  0.91848790  0.44992756     2.64700
O17         O  0.15607250  0.83611244  0.45304878    -0.97900
O18         O  0.07756327  0.91935624  0.38898993    -0.79900
O19         O  0.10254352  0.94526779  0.00084047    -0.83300
O20         O  0.04637330  0.88642810  0.99983515    -2.18000
O21         O  0.87051863  0.01684580  0.06843476    -0.66700
O22         O  0.87194741  0.94646235  0.03583498    -0.51300
C23         C  0.85239471  0.98118849  0.05952865     0.72100
O24         O  0.96908375  0.12350318  0.43314949    -0.59600
O25         O  0.04153487  0.11999127  0.46461360    -0.51600
C26         C  0.00588607  0.14066908  0.44139724     0.73900
O27         O  0.86809298  0.02401205  0.43110984    -0.71000
O28         O  0.87159013  0.95040419  0.46129751    -0.49700
C29         C  0.85085362  0.98714167  0.43869924     0.75300
O30         O  0.96764003  0.12024410  0.07006003    -0.66300
O31         O  0.03900817  0.11903891  0.03862017    -0.53500
C32         C  0.00361740  0.13846920  0.06193261     0.73600
Zr33       Zr  0.93894222  0.04948861  0.05100969     2.77500
O34         O  0.85557757  0.13133019  0.04973494    -0.97100
O35         O  0.93958983  0.04725079  0.11211545    -0.77900
Zr36       Zr  0.93847456  0.05302536  0.45035289     2.70100
O37         O  0.85586306  0.13552250  0.45213315    -0.79100
O38         O  0.94059116  0.05348610  0.38929411    -0.98200
Zr39       Zr  0.06182321  0.04190321  0.00153862     2.21500
Zr40       Zr  0.94870739  0.92720261  0.49870764     2.11100
O41         O  0.90845634  0.02387425  0.49971345    -2.46900
O42         O  0.96550061  0.08192120  0.50091319    -0.78900
O43         O  0.97742372  0.95341983  0.05044881    -0.71100
O44         O  0.03440880  0.01450503  0.44990051    -2.32100
O45         O  0.03498802  0.01166014  0.05194815    -2.28300
O46         O  0.97710921  0.95685880  0.44875236    -0.72900
H47         H  0.05992416  0.84737041  0.99953467     0.79100
H48         H  0.04724754  0.02768168  0.43064548     0.80200
H49         H  0.86922575  0.03731179  0.49967809     0.82400
H50         H  0.04809791  0.02403700  0.07153231     0.80000
H51         H  0.03926794  0.93192616  0.38162020     0.43100
H52         H  0.94205838  0.01746363  0.38263288     0.42000
H53         H  0.85973540  0.15449043  0.47260846     0.41700
H54         H  0.84690835  0.14058193  0.07365020     0.39600
H55         H  0.97709147  0.04156861  0.11857002     0.42800
H56         H  0.07564247  0.95016001  0.11795088     0.37600
H57         H  0.17857237  0.83949690  0.03192176     0.43700
H58         H  0.15135194  0.81651270  0.47301227     0.40100
H59         H  0.86662257  0.15998889  0.04114809     0.45000
H60         H  0.11471596  0.88864818  0.11701945     0.43700
H61         H  0.15363296  0.81397588  0.43378792     0.43900
H62         H  0.90386063  0.07929696  0.38251652     0.44200
C63         C  0.99579598  0.53223512  0.17754450     0.03800
C64         C  0.00086190  0.48534098  0.16009233    -0.13900
C65         C  0.00907985  0.43753426  0.17755590     0.01300
C66         C  0.01393294  0.43605005  0.21259113    -0.10900
C67         C  0.00873624  0.48273719  0.23096745     0.03800
C68         C  0.99859991  0.53096759  0.21270534    -0.10300
H69         H  0.99835234  0.48586062  0.13297060     0.09400
H70         H  0.02300535  0.39761454  0.22490885     0.06900
H71         H  0.99173637  0.56855201  0.22538234     0.06700
C72         C  0.02291104  0.52399754  0.32139814     0.03800
C73         C  0.01834149  0.48160017  0.33955581    -0.12400
C74         C  0.01261699  0.43837983  0.32298940     0.01300
C75         C  0.00761046  0.43971119  0.28790381    -0.10900
C76         C  0.01344801  0.48143695  0.26872520     0.03800
C77         C  0.02314492  0.52247048  0.28623765    -0.10300
H78         H  0.01898631  0.48249085  0.36672721     0.09400
H79         H  0.99937695  0.40769182  0.27608499     0.06900
H80         H  0.02950153  0.55447530  0.27302825     0.06700
C81         C  0.54498252  0.00300522  0.17742235     0.03800
C82         C  0.50302789  0.99679757  0.15956669    -0.12400
C83         C  0.46058764  0.99030310  0.17647401     0.01300
C84         C  0.46094034  0.98860334  0.21168281    -0.10900
C85         C  0.50138108  0.99727748  0.23059106     0.03800
C86         C  0.54264807  0.00591609  0.21256521    -0.10300
H87         H  0.50395498  0.99592670  0.13237868     0.09400
H88         H  0.42891697  0.98090384  0.22374920     0.06900
H89         H  0.57422759  0.01363864  0.22526894     0.06700
C90         C  0.54532153  0.99754955  0.32231244     0.03800
C91         C  0.49964419  0.99889994  0.33967691    -0.12400
C92         C  0.45479922  0.99819728  0.32209198     0.01300
C93         C  0.45492645  0.99887939  0.28683355    -0.10900
C94         C  0.50083395  0.99690444  0.26856018     0.03800
C95         C  0.54646364  0.99457147  0.28723439    -0.10300
H96         H  0.49931667  0.99977875  0.36686317     0.09400
H97         H  0.41818144  0.00209423  0.27432690     0.06900
H98         H  0.58408326  0.98929790  0.27518876     0.06700
C99         C  0.99504520  0.32501569  0.35562291     0.30400
C100        C  0.97492366  0.28430388  0.35669582    -0.35900
C101        C  0.99147624  0.24888730  0.38420364     0.16400
C102        C  0.02598433  0.25269910  0.40884192     0.22200
C103        C  0.04594918  0.29364061  0.40785460    -0.34000
C104        C  0.02881371  0.32950851  0.38051513     0.16300
O105        O  0.98482714  0.36241119  0.33213938    -0.26100
C106        C  0.01179654  0.39180209  0.34232052     0.06100
C107        C  0.03997670  0.37307612  0.37227603    -0.30900
O108        O  0.03618829  0.21500076  0.43220331    -0.22800
C109        C  0.00735723  0.18710616  0.42249336    -0.02800
C110        C  0.97883704  0.20640145  0.39279864    -0.17200
H111        H  0.94804303  0.28063184  0.33749450     0.20800
H112        H  0.07268103  0.29745628  0.42711120     0.19200
H113        H  0.06573508  0.38868526  0.38570753     0.19100
H114        H  0.95266005  0.19119445  0.37946670     0.15000
C115        C  0.00286191  0.63331291  0.37503698     0.30400
C116        C  0.97906820  0.66849539  0.40176625    -0.35900
C117        C  0.99368296  0.71278929  0.40497917     0.16400
C118        C  0.03002107  0.72136638  0.38374779     0.22200
C119        C  0.05342591  0.68642316  0.35675115    -0.34000
C120        C  0.03801018  0.64260519  0.35317156     0.16300
O121        O  0.99416525  0.58993094  0.36714966    -0.26100
C122        C  0.02348542  0.57145838  0.33958382     0.06100
C123        C  0.05158818  0.60271339  0.32963504    -0.30900
O124        O  0.03901612  0.76453303  0.39206945    -0.22800
C125        C  0.00752269  0.78415354  0.41872570    -0.02800
C126        C  0.97815371  0.75375802  0.42775072    -0.17200
H127        H  0.95087730  0.66194714  0.41875483     0.20800
H128        H  0.08144263  0.69307458  0.33966947     0.19200
H129        H  0.07801025  0.59693005  0.30823486     0.19100
H130        H  0.95045618  0.76019932  0.44854483     0.15000
C131        C  0.99493298  0.32170531  0.14728898     0.30400
C132        C  0.97471732  0.28102303  0.14670213    -0.35900
C133        C  0.99016641  0.24592503  0.11915678     0.16400
C134        C  0.02396511  0.24995133  0.09422369     0.22200
C135        C  0.04373546  0.29099248  0.09464126    -0.34000
C136        C  0.02743258  0.32674021  0.12185756     0.16300
O137        O  0.98510899  0.35925547  0.17044697    -0.26100
C138        C  0.01094399  0.38921902  0.15945254     0.06100
C139        C  0.03781007  0.37108286  0.12924918    -0.30900
O140        O  0.03342750  0.21260671  0.07093275    -0.22800
C141        C  0.00478121  0.18474664  0.08086578    -0.02800
C142        C  0.97693050  0.20372555  0.11067989    -0.17200
H143        H  0.94836870  0.27734691  0.16617498     0.20800
H144        H  0.06950954  0.29510871  0.07494789     0.19200
H145        H  0.06159646  0.38801457  0.11497724     0.19100
H146        H  0.95097345  0.18847004  0.12416104     0.15000
C147        C  0.98044947  0.71932129  0.09243239     0.30400
C148        C  0.96432459  0.67561882  0.09163455    -0.35900
C149        C  0.97564005  0.64319794  0.12061277     0.16400
C150        C  0.00003174  0.65378275  0.14863403     0.22200
C151        C  0.01590503  0.69750589  0.14948068    -0.34000
C152        C  0.00574641  0.72913931  0.12029483     0.16300
O153        O  0.97580381  0.75367699  0.06774643    -0.26100
C154        C  0.99913715  0.78535689  0.07983614     0.06100
C155        C  0.01850987  0.77190697  0.11240722    -0.30900
O156        O  0.00869472  0.61724667  0.17242818    -0.22800
C157        C  0.99018568  0.58227321  0.15949221    -0.02800
C158        C  0.96891018  0.59652657  0.12726401    -0.17200
H159        H  0.94565247  0.66666307  0.06966054     0.20800
H160        H  0.03621945  0.70534329  0.17105024     0.19200
H161        H  0.03893378  0.79095622  0.12797817     0.19100
H162        H  0.95193211  0.57521444  0.11087079     0.15000
C163        C  0.74112936  0.00820567  0.38490077     0.30400
C164        C  0.70694597  0.02952589  0.35717492    -0.35900
C165        C  0.66320396  0.01387031  0.35411441     0.16400
C166        C  0.65313779  0.98052331  0.37709080     0.22200
C167        C  0.68746981  0.95901892  0.40465841    -0.34000
C168        C  0.73175779  0.97376449  0.40736370     0.16300
O169        O  0.78445275  0.01729675  0.39274479    -0.26100
C170        C  0.80326396  0.98779016  0.42035769     0.06100
C171        C  0.77228238  0.95964840  0.43049757    -0.30900
O172        O  0.60998205  0.97110580  0.36936746    -0.22800
C173        C  0.59262979  0.99807508  0.34079201    -0.02800
C174        C  0.62417721  0.02545283  0.33008849    -0.17200
H175        H  0.71421530  0.05599682  0.33912620     0.20800
H176        H  0.68044050  0.93222656  0.42256503     0.19200
H177        H  0.77822153  0.93347194  0.45212560     0.19100
H178        H  0.61901260  0.05022936  0.30785668     0.15000
C179        C  0.35078415  0.00747849  0.37835274     0.30400
C180        C  0.31875261  0.02431643  0.40725104    -0.35900
C181        C  0.27686576  0.00599755  0.41049206     0.16400
C182        C  0.26755320  0.97273610  0.38717578     0.22200
C183        C  0.29947790  0.95600760  0.35822998    -0.34000
C184        C  0.34082780  0.97504754  0.35473695     0.16300
O185        O  0.39195760  0.02001333  0.37016302    -0.26100
C186        C  0.40809562  0.99599138  0.34063299     0.06100
C187        C  0.37771028  0.96740612  0.32985648    -0.30900
O188        O  0.22613010  0.96057671  0.39524299    -0.22800
C189        C  0.20843741  0.98675548  0.42396501    -0.02800
C190        C  0.23841103  0.01574739  0.43462595    -0.17200
H191        H  0.32570885  0.05025486  0.42577547     0.20800
H192        H  0.29224618  0.93040029  0.33958378     0.19200
H193        H  0.38272545  0.94366933  0.30724880     0.19100
H194        H  0.23263156  0.04039269  0.45689675     0.15000
C195        C  0.65388473  0.98034247  0.12285340     0.30400
C196        C  0.68695332  0.95772513  0.09501871    -0.35900
C197        C  0.73269925  0.97005299  0.09178247     0.16400
C198        C  0.74462875  0.00280599  0.11425001     0.22200
C199        C  0.71174157  0.02516186  0.14215726    -0.34000
C200        C  0.66630524  0.01242150  0.14554954     0.16300
O201        O  0.60931699  0.97391412  0.13079451    -0.26100
C202        C  0.59303273  0.00191282  0.15906459     0.06100
C203        C  0.62709758  0.02671704  0.16949249    -0.30900
O204        O  0.78854053  0.01019796  0.10600362    -0.22800
C205        C  0.80528126  0.98152108  0.07805522    -0.02800
C206        C  0.77225285  0.95542746  0.06799661    -0.17200
H207        H  0.67764203  0.93233140  0.07717133     0.20800
H208        H  0.72093551  0.05072931  0.15993480     0.19200
H209        H  0.62353260  0.05168662  0.19136701     0.19100
H210        H  0.77608663  0.93058363  0.04601609     0.15000
C211        C  0.35724859  0.99864170  0.11978378     0.30400
C212        C  0.32309652  0.01794810  0.09179347    -0.35900
C213        C  0.28160992  0.99902700  0.08844477     0.16400
C214        C  0.27473265  0.96294308  0.11075381     0.22200
C215        C  0.30873142  0.94387366  0.13877493    -0.34000
C216        C  0.34959010  0.96346602  0.14242705     0.16300
O217        O  0.39777925  0.01195912  0.12835597    -0.26100
C218        C  0.41583147  0.98548146  0.15709904     0.06100
C219        C  0.38730779  0.95466862  0.16701200    -0.30900
O220        O  0.23300074  0.95102637  0.10299909    -0.22800
C221        C  0.21251224  0.98025712  0.07553227    -0.02800
C222        C  0.24108240  0.01096353  0.06535015    -0.17200
H223        H  0.32797863  0.04635452  0.07418048     0.20800
H224        H  0.30315485  0.91637560  0.15678405     0.19200
H225        H  0.39343647  0.92943353  0.18910100     0.19100
H226        H  0.23290346  0.03832905  0.04414603     0.15000
O227        O  0.14714954  0.94278436  0.56540822    -0.74600
O228        O  0.14061018  0.01886465  0.53692296    -0.53600
C229        C  0.16373309  0.98027381  0.55801617     0.79100
O230        O  0.04474364  0.84794610  0.93037650    -0.59200
O231        O  0.97236037  0.84992844  0.96110280    -0.52300
C232        C  0.00849783  0.82987551  0.93815282     0.71100
O233        O  0.14453645  0.94852987  0.93437711    -0.73800
O234        O  0.13991377  0.02130800  0.96565386    -0.54400
C235        C  0.16147940  0.98522204  0.94297517     0.77100
O236        O  0.03701861  0.85076185  0.56969927    -0.59000
O237        O  0.96973234  0.84919658  0.53509381    -0.52100
C238        C  0.00220749  0.83163510  0.56020514     0.73700
Zr239      Zr  0.07355228  0.91547783  0.54938038     2.54700
O240        O  0.15226790  0.83021568  0.54340098    -0.79500
O241        O  0.08538213  0.90935407  0.61010115    -0.92900
Zr242      Zr  0.07325215  0.91846826  0.95035419     2.64700
O243        O  0.15620968  0.83633215  0.95082152    -0.97900
O244        O  0.07389000  0.92294520  0.88934354    -0.79900
O245        O  0.10318870  0.94522201  0.50017931    -0.83300
O246        O  0.04559829  0.88673461  0.49911710    -2.18000
O247        O  0.87048504  0.01686199  0.56879355    -0.66700
O248        O  0.87084181  0.94781889  0.53534733    -0.51300
C249        C  0.85179358  0.98176137  0.55953456     0.72100
O250        O  0.96679900  0.12386180  0.93418398    -0.59600
O251        O  0.04002727  0.12006053  0.96497516    -0.51600
C252        C  0.00380135  0.14084737  0.94207294     0.73900
O253        O  0.86741057  0.02357646  0.93218455    -0.71000
O254        O  0.87084443  0.95038921  0.96281589    -0.49700
C255        C  0.84982588  0.98708941  0.94020077     0.75300
O256        O  0.96632803  0.12141358  0.56803897    -0.66300
O257        O  0.03865079  0.11953007  0.53729422    -0.53500
C258        C  0.00249544  0.13945893  0.56009447     0.73600
Zr259      Zr  0.93858353  0.04958484  0.55023406     2.77500
O260        O  0.85324225  0.12920683  0.54905785    -0.97100
O261        O  0.94287473  0.04926181  0.61125138    -0.77900
Zr262      Zr  0.93823424  0.05226722  0.95113007     2.70100
O263        O  0.85532488  0.13450972  0.95221641    -0.79100
O264        O  0.94584560  0.05081369  0.89027927    -0.98200
Zr265      Zr  0.06210420  0.04178946  0.50092690     2.21500
Zr266      Zr  0.94944731  0.92633131  0.99927335     2.11100
O267        O  0.90896962  0.02305011  0.00062404    -2.46900
O268        O  0.96531462  0.08172731  0.00151727    -0.78900
O269        O  0.97724508  0.95360160  0.54988651    -0.71100
O270        O  0.03411908  0.01443877  0.95065105    -2.32100
O271        O  0.03471446  0.01157793  0.55118255    -2.28300
O272        O  0.97695627  0.95613446  0.94917234    -0.72900
H273        H  0.05866736  0.84776589  0.49886039     0.79100
H274        H  0.04679855  0.02790760  0.93144840     0.80200
H275        H  0.86971577  0.03641617  0.00063584     0.82400
H276        H  0.04766951  0.02391014  0.57084735     0.80000
H277        H  0.06770161  0.96096396  0.88406643     0.43100
H278        H  0.95677439  0.01222561  0.88418339     0.42000
H279        H  0.85895532  0.15397998  0.97252328     0.41700
H280        H  0.84137303  0.13469092  0.57275973     0.39600
H281        H  0.97296258  0.01435037  0.61698244     0.42800
H282        H  0.08090022  0.94614835  0.61726748     0.37600
H283        H  0.18281757  0.84094438  0.53873061     0.43700
H284        H  0.16738902  0.83065258  0.92699850     0.40100
H285        H  0.86353099  0.15990306  0.54395616     0.45000
H286        H  0.12439762  0.88662853  0.61368437     0.43700
H287        H  0.18358618  0.84704217  0.96173741     0.43900
H288        H  0.90805874  0.06900655  0.88202251     0.44200
C289        C  0.00111574  0.52954090  0.67680743     0.03800
C290        C  0.00416075  0.48306853  0.65964886    -0.13900
C291        C  0.00884471  0.43641662  0.67729776     0.01300
C292        C  0.01167726  0.43563756  0.71239447    -0.10900
C293        C  0.00878077  0.48171510  0.73067384     0.03800
C294        C  0.00258066  0.52887777  0.71206067    -0.10300
H295        H  0.00294009  0.48296212  0.63250819     0.09400
H296        H  0.01780950  0.39793264  0.72477322     0.06900
H297        H  0.99760223  0.56618782  0.72442179     0.06700
C298        C  0.01947821  0.52393561  0.82156519     0.03800
C299        C  0.01336757  0.48222900  0.83959363    -0.12400
C300        C  0.00816930  0.43877132  0.82298152     0.01300
C301        C  0.00508265  0.43934984  0.78777516    -0.10900
C302        C  0.01194676  0.48073547  0.76863021     0.03800
C303        C  0.02132228  0.52175165  0.78641153    -0.10300
H304        H  0.01266994  0.48376311  0.86675190     0.09400
H305        H  0.99747331  0.40700897  0.77595271     0.06900
H306        H  0.02871112  0.55331534  0.77343870     0.06700
C307        C  0.54571123  0.99771666  0.67727784     0.03800
C308        C  0.50362460  0.99145810  0.65968117    -0.12400
C309        C  0.46184905  0.98412966  0.67679087     0.01300
C310        C  0.46257585  0.98220539  0.71198740    -0.10900
C311        C  0.50308790  0.99118580  0.73078235     0.03800
C312        C  0.54446105  0.99919901  0.71248765    -0.10300
H313        H  0.50372873  0.99153718  0.63247977     0.09400
H314        H  0.43049777  0.97452157  0.72398463     0.06900
H315        H  0.57669594  0.00592815  0.72497427     0.06700
C316        C  0.54425696  0.99775870  0.82286562     0.03800
C317        C  0.49902937  0.99743920  0.83994997    -0.12400
C318        C  0.45525643  0.99459726  0.82220209     0.01300
C319        C  0.45646346  0.99336031  0.78698592    -0.10900
C320        C  0.50193926  0.99278103  0.76883772     0.03800
C321        C  0.54598270  0.99441782  0.78774019    -0.10300
H322        H  0.49813457  0.99897170  0.86712332     0.09400
H323        H  0.42062647  0.99435593  0.77438917     0.06900
H324        H  0.58302318  0.99158921  0.77598085     0.06700
C325        C  0.99153682  0.32454623  0.85546274     0.30400
C326        C  0.97382700  0.28203600  0.85594789    -0.35900
C327        C  0.98952132  0.24768370  0.88400780     0.16400
C328        C  0.02113124  0.25408110  0.90963629     0.22200
C329        C  0.03848092  0.29682906  0.90927404    -0.34000
C330        C  0.02208309  0.33165548  0.88145286     0.16300
O331        O  0.98223109  0.36111998  0.83149816    -0.26100
C332        C  0.00653065  0.39257019  0.84250387     0.06100
C333        C  0.03190256  0.37603177  0.87351018    -0.30900
O334        O  0.03109842  0.21706992  0.93337519    -0.22800
C335        C  0.00485359  0.18711039  0.92297765    -0.02800
C336        C  0.97838157  0.20422773  0.89241790    -0.17200
H337        H  0.94941238  0.27622710  0.83591848     0.20800
H338        H  0.06283734  0.30267956  0.92932670     0.19200
H339        H  0.05550473  0.39324613  0.88775276     0.19100
H340        H  0.95441673  0.18706519  0.87846990     0.15000
C341        C  0.00178745  0.63226720  0.87580522     0.30400
C342        C  0.97920126  0.66707969  0.90292333    -0.35900
C343        C  0.99461098  0.71092065  0.90614512     0.16400
C344        C  0.03053803  0.71943711  0.88454510     0.22200
C345        C  0.05291653  0.68471466  0.85727715    -0.34000
C346        C  0.03674270  0.64137609  0.85371129     0.16300
O347        O  0.99212118  0.58944258  0.86775770    -0.26100
C348        C  0.02069694  0.57112398  0.83988172     0.06100
C349        C  0.04926394  0.60193363  0.82992848    -0.30900
O350        O  0.03997003  0.76248827  0.89268745    -0.22800
C351        C  0.00923976  0.78210599  0.91966782    -0.02800
C352        C  0.97996633  0.75173398  0.92904674    -0.17200
H353        H  0.95120050  0.66068650  0.92014064     0.20800
H354        H  0.08063677  0.69126894  0.83991473     0.19200
H355        H  0.07540901  0.59612448  0.80838783     0.19100
H356        H  0.95262108  0.75828227  0.95004028     0.15000
C357        C  0.99474532  0.32062691  0.64667724     0.30400
C358        C  0.97480559  0.27976124  0.64587238    -0.35900
C359        C  0.98950778  0.24569093  0.61784225     0.16400
C360        C  0.02229944  0.25083646  0.59261761     0.22200
C361        C  0.04219329  0.29171654  0.59341050    -0.34000
C362        C  0.02675322  0.32634255  0.62116139     0.16300
O363        O  0.98496382  0.35787307  0.67005118    -0.26100
C364        C  0.01050671  0.38818006  0.65912949     0.06100
C365        C  0.03723403  0.37043174  0.62885212    -0.30900
O366        O  0.03112203  0.21434330  0.56886935    -0.22800
C367        C  0.00315269  0.18588497  0.57888996    -0.02800
C368        C  0.97637247  0.20358854  0.60914033    -0.17200
H369        H  0.94907970  0.27529117  0.66548045     0.20800
H370        H  0.06735670  0.29660065  0.57359022     0.19200
H371        H  0.06083871  0.38760155  0.61460974     0.19100
H372        H  0.95145222  0.18733569  0.62285760     0.15000
C373        C  0.98647995  0.71638208  0.59099607     0.30400
C374        C  0.97326880  0.67085637  0.58970013    -0.35900
C375        C  0.98512385  0.63833690  0.61865878     0.16400
C376        C  0.00775484  0.65012984  0.64705557     0.22200
C377        C  0.02143100  0.69531544  0.64823565    -0.34000
C378        C  0.01024714  0.72742276  0.61916682     0.16300
O379        O  0.97955730  0.75199018  0.56670790    -0.26100
C380        C  0.99979552  0.78585170  0.57937645     0.06100
C381        C  0.01955039  0.77245637  0.61189690    -0.30900
O382        O  0.01538819  0.61427581  0.67124199    -0.22800
C383        C  0.99793640  0.57854098  0.65816554    -0.02800
C384        C  0.97863121  0.59160501  0.62540765    -0.17200
H385        H  0.95544745  0.66120975  0.56758010     0.20800
H386        H  0.03996186  0.70451686  0.67018656     0.19200
H387        H  0.03811536  0.79293366  0.62779952     0.19100
H388        H  0.96207089  0.57005796  0.60891229     0.15000
C389        C  0.73945407  0.00873726  0.88667357     0.30400
C390        C  0.70515485  0.03055239  0.85904009    -0.35900
C391        C  0.66133853  0.01503989  0.85573442     0.16400
C392        C  0.65150425  0.98103926  0.87830853     0.22200
C393        C  0.68597686  0.95900629  0.90582392    -0.34000
C394        C  0.73017748  0.97393960  0.90889297     0.16300
O395        O  0.78275128  0.01781148  0.89463891    -0.26100
C396        C  0.80171319  0.98807162  0.92214938     0.06100
C397        C  0.77072770  0.95976253  0.93212624    -0.30900
O398        O  0.60848373  0.97153445  0.87023904    -0.22800
C399        C  0.59090418  0.99918988  0.84186770    -0.02800
C400        C  0.62217649  0.02716866  0.83168780    -0.17200
H401        H  0.71236807  0.05738475  0.84124032     0.20800
H402        H  0.67906492  0.93176698  0.92344503     0.19200
H403        H  0.77678484  0.93330078  0.95362362     0.19100
H404        H  0.61697209  0.05240438  0.80967074     0.15000
C405        C  0.35174715  0.00431306  0.87885443     0.30400
C406        C  0.32118669  0.02008841  0.90836711    -0.35900
C407        C  0.27838068  0.00313378  0.91160666     0.16400
C408        C  0.26694449  0.97205878  0.88769982     0.22200
C409        C  0.29737430  0.95644059  0.85812736    -0.34000
C410        C  0.33963516  0.97415927  0.85465894     0.16300
O411        O  0.39362750  0.01561766  0.87069422    -0.26100
C412        C  0.40822870  0.99299263  0.84066471     0.06100
C413        C  0.37590439  0.96668853  0.82943447    -0.30900
O414        O  0.22488603  0.96104446  0.89578722    -0.22800
C415        C  0.20881633  0.98590265  0.92505819    -0.02800
C416        C  0.24058279  0.01274533  0.93615640    -0.17200
H417        H  0.32990841  0.04425390  0.92734517     0.20800
H418        H  0.28840370  0.93260017  0.83903679     0.19200
H419        H  0.37936129  0.94427177  0.80641465     0.19100
H420        H  0.23627449  0.03603237  0.95889987     0.15000
C421        C  0.65139389  0.98174724  0.62127460     0.30400
C422        C  0.68367886  0.96122011  0.59284365    -0.35900
C423        C  0.73066697  0.97172081  0.59070103     0.16400
C424        C  0.74436480  0.00118490  0.61462708     0.22200
C425        C  0.71222999  0.02143408  0.64315662    -0.34000
C426        C  0.66565967  0.01028858  0.64549999     0.16300
O427        O  0.60671670  0.97519869  0.62882710    -0.26100
C428        C  0.59232485  0.99935909  0.65845997     0.06100
C429        C  0.62750523  0.02218054  0.66999012    -0.30900
O430        O  0.78906261  0.00774331  0.60705617    -0.22800
C431        C  0.80459539  0.98168327  0.57808153    -0.02800
C432        C  0.76998466  0.95811614  0.56678090    -0.17200
H433        H  0.67310248  0.93832162  0.57387197     0.20800
H434        H  0.72292598  0.04407172  0.66224428     0.19200
H435        H  0.62580286  0.04374507  0.69314373     0.19100
H436        H  0.77251920  0.93578627  0.54382862     0.15000
C437        C  0.35788465  0.99486460  0.62024217     0.30400
C438        C  0.32313002  0.01597586  0.59274581    -0.35900
C439        C  0.28223416  0.99655211  0.58851774     0.16400
C440        C  0.27653339  0.95824612  0.60949577     0.22200
C441        C  0.31141844  0.93703732  0.63693551    -0.34000
C442        C  0.35161214  0.95729136  0.64157440     0.16300
O443        O  0.39773054  0.00862605  0.62955183    -0.26100
C444        C  0.41681314  0.98002435  0.65745240     0.06100
C445        C  0.38960925  0.94738839  0.66616208    -0.30900
O446        O  0.23462553  0.94688408  0.60136055    -0.22800
C447        C  0.21290739  0.97871646  0.57503360    -0.02800
C448        C  0.24089453  0.01044222  0.56589303    -0.17200
H449        H  0.32694876  0.04630026  0.57626674     0.20800
H450        H  0.30672817  0.90778318  0.65393809     0.19200
H451        H  0.39683640  0.92030547  0.68743250     0.19100
H452        H  0.23170144  0.03985795  0.54575549     0.15000
loop_ 
_geom_bond_atom_site_label_1 
_geom_bond_atom_site_label_2 
_geom_bond_distance 
_geom_bond_site_symmetry_2 
_ccdc_geom_bond_type 
O1          Zr13   2.457       .  S
O1            C3   1.290       .  A
O2          Zr39   2.411       .  S
O2            C3   1.284   1_545  A
C3          C221   1.470       .  S
O4          Zr16   2.440       .  S
O4            C6   1.286       .  A
O5          Zr40   2.428       .  S
O5            C6   1.287   1_655  A
C6          C125   1.470       .  S
O7          Zr16   2.444       .  S
O7            C9   1.288       .  A
O8         Zr265   2.418       .  S
O8            C9   1.285   1_545  A
C9          C189   1.469       .  S
O10         Zr13   2.458       .  S
O10          C12   1.291       .  A
O11        Zr266   2.417   1_554  S
O11          C12   1.284   1_655  A
C12         C154   1.471   1_455  S
Zr13         O14   2.432       .  S
Zr13         O15   2.437       .  S
Zr13         O19   2.376       .  S
Zr13         O20   2.378   1_554  S
Zr13         O43   2.369   1_455  S
Zr13         O45   2.372   1_565  S
O14          H57   0.990       .  S
O15          H56   0.990       .  S
O15          H60   0.990       .  S
Zr16         O17   2.435       .  S
Zr16         O18   2.433       .  S
Zr16         O44   2.368   1_565  S
Zr16         O46   2.374   1_455  S
Zr16        O246   2.375       .  S
Zr16        O245   2.371       .  S
O17          H58   0.990       .  S
O17          H61   0.990       .  S
O18          H51   0.990       .  S
O19         Zr39   2.384   1_565  S
O19        Zr242   2.374   1_554  S
O20        Zr242   2.377       .  S
O20        Zr266   2.389   1_455  S
O20          H47   0.965       .  S
O21         Zr33   2.433       .  S
O21          C23   1.286   1_545  A
O22        Zr266   2.423   1_554  S
O22          C23   1.286       .  A
C23         C205   1.464       .  S
O24         Zr36   2.444       .  S
O24          C26   1.289   1_655  A
O25        Zr265   2.425       .  S
O25          C26   1.285       .  A
C26         C109   1.471       .  S
O27         Zr36   2.437       .  S
O27          C29   1.286   1_545  A
O28         Zr40   2.420       .  S
O28          C29   1.286       .  A
C29         C170   1.465       .  S
O30         Zr33   2.441       .  S
O30          C32   1.287   1_655  A
O31         Zr39   2.421       .  S
O31          C32   1.285       .  A
C32         C141   1.467       .  S
Zr33         O34   2.436       .  S
Zr33         O35   2.436       .  S
Zr33         O45   2.367   1_655  S
Zr33         O43   2.369   1_545  S
Zr33        O267   2.375       .  S
Zr33        O268   2.374       .  S
O34          H54   0.990       .  S
O34          H59   0.990       .  S
O35          H55   0.990       .  S
Zr36         O37   2.435       .  S
Zr36         O38   2.435       .  S
Zr36         O42   2.375       .  S
Zr36         O41   2.375       .  S
Zr36         O46   2.372   1_545  S
Zr36         O44   2.364   1_655  S
O37          H53   0.990       .  S
O38          H52   0.990       .  S
O38          H62   0.990       .  S
Zr39        O234   2.418   1_554  S
Zr39        O251   2.426   1_554  S
Zr39         O45   2.385       .  S
Zr39        O268   2.378   1_455  S
Zr39        O270   2.377   1_554  S
Zr40        O237   2.421       .  S
Zr40        O248   2.431       .  S
Zr40         O41   2.385   1_565  S
Zr40         O46   2.381       .  S
Zr40        O246   2.388   1_655  S
Zr40        O269   2.384       .  S
O41        Zr259   2.373       .  S
O41          H49   0.968       .  S
O42        Zr259   2.376       .  S
O42        Zr265   2.381   1_655  S
O43        Zr266   2.385   1_554  S
O44        Zr265   2.379       .  S
O44          H48   0.965       .  S
O45          H50   0.968       .  S
C63         C157   1.478       .  S
C63          C64   1.399   1_655  A
C63          C68   1.403       .  A
C64          C65   1.398       .  A
C64          H69   1.083   1_455  S
C65         C138   1.470       .  S
C65          C66   1.401       .  A
C66          C67   1.413       .  A
C66          H70   1.079       .  S
C67          C76   1.509       .  S
C67          C68   1.414   1_455  A
C68          H71   1.079       .  S
C72         C122   1.474       .  S
C72          C73   1.395       .  A
C72          C77   1.402       .  A
C73          C74   1.398       .  A
C73          H78   1.084       .  S
C74         C106   1.477       .  S
C74          C75   1.404       .  A
C75          C76   1.416       .  A
C75          H79   1.079   1_455  S
C76          C77   1.415       .  A
C77          H80   1.078       .  S
C81         C202   1.475       .  S
C81          C82   1.397   1_545  A
C81          C86   1.403       .  A
C82          C83   1.395       .  A
C82          H87   1.084       .  S
C83         C218   1.476       .  S
C83          C84   1.404       .  A
C84          C85   1.414       .  A
C84          H88   1.076       .  S
C85          C94   1.514       .  S
C85          C86   1.417   1_565  A
C86          H89   1.076       .  S
C90         C173   1.472       .  S
C90          C91   1.398       .  A
C90          C95   1.401       .  A
C91          C92   1.399       .  A
C91          H96   1.084       .  S
C92         C186   1.479       .  S
C92          C93   1.406       .  A
C93          C94   1.417       .  A
C93          H97   1.077   1_565  S
C94          C95   1.412       .  A
C95          H98   1.077       .  S
C99         C104   1.380   1_655  A
C99         C100   1.401       .  A
C99         O105   1.318       .  A
C100        C101   1.401       .  A
C100        H111   1.082       .  S
C101        C110   1.358       .  A
C101        C102   1.381   1_655  A
C102        C103   1.404       .  A
C102        O108   1.320       .  A
C103        C104   1.404       .  A
C103        H112   1.082       .  S
C104        C107   1.359       .  A
O105        C106   1.330   1_655  A
C106        C107   1.394       .  A
C107        H113   1.082       .  S
O108        C109   1.332       .  A
C109        C110   1.391   1_455  A
C110        H114   1.082       .  S
C115        C120   1.380       .  A
C115        C116   1.401   1_455  A
C115        O121   1.316   1_455  A
C116        C117   1.400       .  A
C116        H127   1.082       .  S
C117        C126   1.360       .  A
C117        C118   1.380   1_655  A
C118        C119   1.404       .  A
C118        O124   1.319       .  A
C119        C120   1.403       .  A
C119        H128   1.082       .  S
C120        C123   1.363       .  A
O121        C122   1.330   1_655  A
C122        C123   1.392       .  A
C123        H129   1.082       .  S
O124        C125   1.332       .  A
C125        C126   1.390   1_455  A
C126        H130   1.082       .  S
C131        C136   1.381   1_655  A
C131        C132   1.402       .  A
C131        O137   1.316       .  A
C132        C133   1.401       .  A
C132        H143   1.082       .  S
C133        C142   1.360       .  A
C133        C134   1.381   1_655  A
C134        C135   1.402       .  A
C134        O140   1.317       .  A
C135        C136   1.401       .  A
C135        H144   1.082       .  S
C136        C139   1.360       .  A
O137        C138   1.330   1_655  A
C138        C139   1.391       .  A
C139        H145   1.082       .  S
O140        C141   1.330       .  A
C141        C142   1.391   1_455  A
C142        H146   1.083       .  S
C147        C152   1.380   1_655  A
C147        C148   1.405       .  A
C147        O153   1.320       .  A
C148        C149   1.404       .  A
C148        H159   1.082       .  S
C149        C158   1.363       .  A
C149        C150   1.380   1_655  A
C150        C151   1.401       .  A
C150        O156   1.316       .  A
C151        C152   1.401       .  A
C151        H160   1.082       .  S
C152        C155   1.361       .  A
O153        C154   1.332       .  A
C154        C155   1.390   1_655  A
C155        H161   1.082       .  S
O156        C157   1.330   1_455  A
C157        C158   1.394       .  A
C158        H162   1.082       .  S
C163        C168   1.381   1_545  A
C163        C164   1.402       .  A
C163        O169   1.318       .  A
C164        C165   1.402       .  A
C164        H175   1.082       .  S
C165        C174   1.359       .  A
C165        C166   1.381   1_545  A
C166        C167   1.400       .  A
C166        O172   1.317       .  A
C167        C168   1.400       .  A
C167        H176   1.082       .  S
C168        C171   1.358       .  A
O169        C170   1.331   1_545  A
C170        C171   1.389       .  A
C171        H177   1.083       .  S
O172        C173   1.329       .  A
C173        C174   1.393   1_565  A
C174        H178   1.083       .  S
C179        C184   1.380   1_545  A
C179        C180   1.403       .  A
C179        O185   1.320       .  A
C180        C181   1.402       .  A
C180        H191   1.082       .  S
C181        C190   1.361       .  A
C181        C182   1.380   1_545  A
C182        C183   1.403       .  A
C182        O188   1.319       .  A
C183        C184   1.403       .  A
C183        H192   1.082       .  S
C184        C187   1.361       .  A
O185        C186   1.332   1_545  A
C186        C187   1.393       .  A
C187        H193   1.082       .  S
O188        C189   1.331       .  A
C189        C190   1.391   1_565  A
C190        H194   1.083       .  S
C195        C200   1.380   1_565  A
C195        C196   1.403       .  A
C195        O201   1.315       .  A
C196        C197   1.401       .  A
C196        H207   1.082       .  S
C197        C206   1.362       .  A
C197        C198   1.381   1_565  A
C198        C199   1.401       .  A
C198        O204   1.314       .  A
C199        C200   1.400       .  A
C199        H208   1.082       .  S
C200        C203   1.361       .  A
O201        C202   1.331   1_565  A
C202        C203   1.393       .  A
C203        H209   1.082       .  S
O204        C205   1.329   1_545  A
C205        C206   1.391       .  A
C206        H210   1.083       .  S
C211        C216   1.380       .  A
C211        C212   1.403   1_565  A
C211        O217   1.319   1_565  A
C212        C213   1.403   1_545  A
C212        H223   1.082       .  S
C213        C222   1.361   1_565  A
C213        C214   1.381       .  A
C214        C215   1.402       .  A
C214        O220   1.319       .  A
C215        C216   1.401       .  A
C215        H224   1.082       .  S
C216        C219   1.359       .  A
O217        C218   1.332   1_545  A
C218        C219   1.391       .  A
C219        H225   1.082       .  S
O220        C221   1.330       .  A
C221        C222   1.393   1_565  A
C222        H226   1.083       .  S
O227       Zr239   2.451       .  S
O227        C229   1.288       .  A
O228       Zr265   2.415       .  S
O228        C229   1.285   1_545  A
C229        C447   1.469       .  S
O230       Zr242   2.444       .  S
O230        C232   1.288       .  A
O231       Zr266   2.433       .  S
O231        C232   1.288   1_655  A
C232        C351   1.475       .  S
O233       Zr242   2.442       .  S
O233        C235   1.287       .  A
O234        C235   1.285   1_545  A
C235        C415   1.466       .  S
O236       Zr239   2.450       .  S
O236        C238   1.290       .  A
O237        C238   1.285   1_655  A
C238        C380   1.471   1_455  S
Zr239       O240   2.434       .  S
Zr239       O241   2.437       .  S
Zr239       O245   2.373       .  S
Zr239       O246   2.374       .  S
Zr239       O269   2.373   1_455  S
Zr239       O271   2.371   1_565  S
O240        H283   0.990       .  S
O241        H282   0.990       .  S
O241        H286   0.990       .  S
Zr242       O243   2.434       .  S
Zr242       O244   2.435       .  S
Zr242       O270   2.367   1_565  S
Zr242       O272   2.373   1_455  S
O243        H284   0.990       .  S
O243        H287   0.990       .  S
O244        H277   0.990       .  S
O245       Zr265   2.382   1_565  S
O246        H273   0.963       .  S
O247       Zr259   2.440       .  S
O247        C249   1.287   1_545  A
O248        C249   1.288       .  A
C249        C431   1.470       .  S
O250       Zr262   2.434       .  S
O250        C252   1.287   1_655  A
O251        C252   1.286       .  A
C252        C335   1.467       .  S
O253       Zr262   2.439       .  S
O253        C255   1.287   1_545  A
O254       Zr266   2.425       .  S
O254        C255   1.287       .  A
C255        C396   1.469       .  S
O256       Zr259   2.436       .  S
O256        C258   1.287   1_655  A
O257       Zr265   2.415       .  S
O257        C258   1.284       .  A
C258        C367   1.463       .  S
Zr259       O260   2.435       .  S
Zr259       O261   2.435       .  S
Zr259       O271   2.369   1_655  S
Zr259       O269   2.367   1_545  S
O260        H280   0.990       .  S
O260        H285   0.990       .  S
O261        H281   0.990       .  S
Zr262       O263   2.435       .  S
Zr262       O264   2.434       .  S
Zr262       O268   2.377   1_556  S
Zr262       O267   2.371   1_556  S
Zr262       O272   2.372   1_545  S
Zr262       O270   2.363   1_655  S
O263        H279   0.990       .  S
O264        H278   0.990       .  S
O264        H288   0.990       .  S
Zr265       O271   2.386       .  S
Zr266       O267   2.386   1_566  S
Zr266       O272   2.377       .  S
O267        H275   0.969       .  S
O270        H274   0.965       .  S
O271        H276   0.968       .  S
C289        C383   1.484   1_455  S
C289        C290   1.399       .  A
C289        C294   1.406       .  A
C290        C291   1.398       .  A
C290        H295   1.082       .  S
C291        C364   1.471       .  S
C291        C292   1.401       .  A
C292        C293   1.413       .  A
C292        H296   1.078       .  S
C293        C302   1.515       .  S
C293        C294   1.419       .  A
C294        H297   1.078   1_455  S
C298        C348   1.476       .  S
C298        C299   1.395       .  A
C298        C303   1.403       .  A
C299        C300   1.398       .  A
C299        H304   1.083       .  S
C300        C332   1.480       .  S
C300        C301   1.405       .  A
C301        C302   1.420       .  A
C301        H305   1.078   1_455  S
C302        C303   1.416       .  A
C303        H306   1.077       .  S
C307        C428   1.477       .  S
C307        C308   1.395       .  A
C307        C312   1.404       .  A
C308        C309   1.394       .  A
C308        H313   1.084       .  S
C309        C444   1.474       .  S
C309        C310   1.404       .  A
C310        C311   1.418       .  A
C310        H314   1.076       .  S
C311        C320   1.518       .  S
C311        C312   1.417       .  A
C312        H315   1.074   1_565  S
C316        C399   1.476       .  S
C316        C317   1.397       .  A
C316        C321   1.403       .  A
C317        C318   1.399       .  A
C317        H322   1.084       .  S
C318        C412   1.479       .  S
C318        C319   1.404       .  A
C319        C320   1.416       .  A
C319        H323   1.075       .  S
C320        C321   1.417       .  A
C321        H324   1.076       .  S
C325        C330   1.380   1_655  A
C325        C326   1.402       .  A
C325        O331   1.320       .  A
C326        C327   1.402       .  A
C326        H337   1.082       .  S
C327        C336   1.358       .  A
C327        C328   1.381   1_655  A
C328        C329   1.402       .  A
C328        O334   1.319       .  A
C329        C330   1.402       .  A
C329        H338   1.082       .  S
C330        C333   1.357       .  A
O331        C332   1.331   1_655  A
C332        C333   1.394       .  A
C333        H339   1.082       .  S
O334        C335   1.330       .  A
C335        C336   1.391   1_455  A
C336        H340   1.083       .  S
C341        C346   1.380       .  A
C341        C342   1.403   1_455  A
C341        O347   1.317   1_455  A
C342        C343   1.402       .  A
C342        H353   1.082       .  S
C343        C352   1.361       .  A
C343        C344   1.380   1_655  A
C344        C345   1.405       .  A
C344        O350   1.320       .  A
C345        C346   1.403       .  A
C345        H354   1.082       .  S
C346        C349   1.363       .  A
O347        C348   1.331   1_655  A
C348        C349   1.392       .  A
C349        H355   1.082       .  S
O350        C351   1.333       .  A
C351        C352   1.392   1_455  A
C352        H356   1.082       .  S
C357        C362   1.381   1_655  A
C357        C358   1.401       .  A
C357        O363   1.317       .  A
C358        C359   1.400       .  A
C358        H369   1.082       .  S
C359        C368   1.358       .  A
C359        C360   1.381   1_655  A
C360        C361   1.401       .  A
C360        O366   1.317       .  A
C361        C362   1.400       .  A
C361        H370   1.082       .  S
C362        C365   1.358       .  A
O363        C364   1.330   1_655  A
C364        C365   1.390       .  A
C365        H371   1.082       .  S
O366        C367   1.329       .  A
C367        C368   1.390   1_455  A
C368        H372   1.083       .  S
C373        C378   1.380   1_655  A
C373        C374   1.404       .  A
C373        O379   1.320       .  A
C374        C375   1.404       .  A
C374        H385   1.082       .  S
C375        C384   1.362       .  A
C375        C376   1.379   1_655  A
C376        C377   1.403       .  A
C376        O382   1.319       .  A
C377        C378   1.402       .  A
C377        H386   1.082       .  S
C378        C381   1.361       .  A
O379        C380   1.332       .  A
C380        C381   1.391   1_655  A
C381        H387   1.082       .  S
O382        C383   1.332   1_455  A
C383        C384   1.396       .  A
C384        H388   1.082       .  S
C389        C394   1.380   1_545  A
C389        C390   1.403       .  A
C389        O395   1.318       .  A
C390        C391   1.402       .  A
C390        H401   1.082       .  S
C391        C400   1.361       .  A
C391        C392   1.380   1_545  A
C392        C393   1.403       .  A
C392        O398   1.318       .  A
C393        C394   1.402       .  A
C393        H402   1.082       .  S
C394        C397   1.361       .  A
O395        C396   1.331   1_545  A
C396        C397   1.391       .  A
C397        H403   1.083       .  S
O398        C399   1.330       .  A
C399        C400   1.393   1_565  A
C400        H404   1.083       .  S
C405        C410   1.380   1_545  A
C405        C406   1.403       .  A
C405        O411   1.318       .  A
C406        C407   1.402       .  A
C406        H417   1.082       .  S
C407        C416   1.361       .  A
C407        C408   1.381   1_545  A
C408        C409   1.403       .  A
C408        O414   1.318       .  A
C409        C410   1.402       .  A
C409        H418   1.082       .  S
C410        C413   1.360       .  A
O411        C412   1.331   1_545  A
C412        C413   1.394       .  A
C413        H419   1.082       .  S
O414        C415   1.330       .  A
C415        C416   1.391   1_565  A
C416        H420   1.083       .  S
C421        C426   1.379   1_565  A
C421        C422   1.403       .  A
C421        O427   1.316       .  A
C422        C423   1.402       .  A
C422        H433   1.082       .  S
C423        C432   1.363       .  A
C423        C424   1.380   1_565  A
C424        C425   1.403       .  A
C424        O430   1.317       .  A
C425        C426   1.401       .  A
C425        H434   1.082       .  S
C426        C429   1.360       .  A
O427        C428   1.331       .  A
C428        C429   1.393   1_565  A
C429        H435   1.082       .  S
O430        C431   1.331   1_545  A
C431        C432   1.392       .  A
C432        H436   1.082       .  S
C437        C442   1.380       .  A
C437        C438   1.402   1_565  A
C437        O443   1.317   1_565  A
C438        C439   1.401   1_545  A
C438        H449   1.082       .  S
C439        C448   1.360   1_565  A
C439        C440   1.381       .  A
C440        C441   1.402       .  A
C440        O446   1.318       .  A
C441        C442   1.401       .  A
C441        H450   1.082       .  S
C442        C445   1.361       .  A
O443        C444   1.331   1_545  A
C444        C445   1.391       .  A
C445        H451   1.082       .  S
O446        C447   1.331       .  A
C447        C448   1.391   1_565  A
C448        H452   1.083       .  S
