geometry optimzed in LAMMPS
_audit_creation_date              2020-12-01 
_audit_creation_method            'lammps2cif' 
_symmetry_space_group_name_H-M    'P1' 
_symmetry_Int_Tables_number       1 
_symmetry_cell_setting            triclinic 
loop_ 
_symmetry_equiv_pos_as_xyz 
  x,y,z 
_cell_length_a                    34.2131784 
_cell_length_b                    36.13590662848222 
_cell_length_c                    35.591608502878884 
_cell_angle_alpha                 88.96896998866977 
_cell_angle_beta                  90.02613393783868 
_cell_angle_gamma                 89.4293860282788 
loop_ 
_atom_site_label 
_atom_site_type_symbol 
_atom_site_fract_x 
_atom_site_fract_y 
_atom_site_fract_z 
_atom_site_charge 
O1          O  0.48823229  0.56681431  0.94955970    -0.80000
O2          O  0.56164512  0.56470842  0.02668826    -0.80000
O3          O  0.43975009  0.52081673  0.02022781    -0.80000
O4          O  0.61138092  0.52320995  0.95495517    -0.79900
O5          O  0.48291986  0.56434991  0.02411844    -0.80100
O6          O  0.56770850  0.56721246  0.95237295    -0.80000
O7          O  0.60746582  0.52254771  0.02822363    -0.80000
O8          O  0.44474101  0.52372468  0.94588362    -0.80000
C9          C  0.45481197  0.55714830  0.93962299     1.09700
C10         C  0.59663564  0.55592350  0.03313943     1.09600
C11         C  0.44822877  0.55409538  0.02821725     1.09800
C12         C  0.60211743  0.55633482  0.94632968     1.09600
O13         O  0.56828636  0.49902765  0.90960087    -0.80000
O14         O  0.48392844  0.49256516  0.06463412    -0.80000
O15         O  0.48638021  0.45188699  0.94387615    -0.80000
O16         O  0.56736441  0.45028067  0.02741473    -0.79900
O17         O  0.56026285  0.49375749  0.06881047    -0.80000
O18         O  0.49327487  0.49896905  0.90515361    -0.80000
O19         O  0.57075109  0.45295087  0.95013444    -0.79900
O20         O  0.48210449  0.44903659  0.02271833    -0.80000
Co21       Co  0.52898423  0.53259737  0.93398808     1.51500
Co22       Co  0.52248942  0.52854020  0.04138494     1.51700
Co23       Co  0.46849178  0.48660285  0.98352359     1.51600
Co24       Co  0.58405456  0.48736036  0.99008215     1.51500
O25         O  0.52597999  0.50771326  0.98721848    -1.41900
C26         C  0.57504527  0.46516001  0.91693343     1.09700
C27         C  0.47741191  0.45907214  0.05628223     1.09800
C28         C  0.48598407  0.46489071  0.91057626     1.09700
C29         C  0.56935727  0.46062543  0.06091227     1.09700
O30         O  0.55115427  0.88807895  0.46453341    -0.80000
O31         O  0.58825668  0.01755486  0.53036825    -0.80000
O32         O  0.55454309  0.00994506  0.40826494    -0.80000
O33         O  0.53844793  0.94522637  0.56475942    -0.79900
O34         O  0.59553133  0.01430768  0.45398551    -0.80100
O35         O  0.57906328  0.93580473  0.51721988    -0.80000
O36         O  0.53990655  0.01966905  0.57021799    -0.80000
O37         O  0.56542046  0.93801513  0.43064103    -0.80000
C38         C  0.56960173  0.90284313  0.43768736     1.09700
C39         C  0.57520476  0.02666048  0.56192695     1.09600
C40         C  0.58795729  0.01940124  0.41965095     1.09800
C41         C  0.57105942  0.93329920  0.55196669     1.09600
O42         O  0.50395376  0.90628306  0.51865464    -0.80000
O43         O  0.52315183  0.05807734  0.44697764    -0.80000
O44         O  0.50058425  0.95840010  0.39301202    -0.80000
O45         O  0.46816721  0.02790545  0.52978381    -0.79900
O46         O  0.51892042  0.06476700  0.52043195    -0.80000
O47         O  0.48667650  0.92795875  0.44607582    -0.80000
O48         O  0.46179149  0.95014530  0.52792723    -0.79900
O49         O  0.47807461  0.01555395  0.43826585    -0.80000
Co50       Co  0.53521128  0.93485822  0.48167625     1.51500
Co51       Co  0.55626922  0.03563938  0.48826752     1.51700
Co52       Co  0.51925883  0.97666441  0.43831325     1.51600
Co53       Co  0.50242192  0.98555031  0.54464970     1.51500
O54         O  0.52720919  0.98788819  0.49244912    -1.41900
C55         C  0.47043398  0.91597185  0.52902742     1.09700
C56         C  0.48898212  0.04907674  0.43631055     1.09800
C57         C  0.48143021  0.93356549  0.41030146     1.09700
C58         C  0.48283681  0.06011065  0.52787400     1.09700
O59         O  0.93284998  0.49090675  0.44479812    -0.80000
O60         O  0.09376288  0.48619124  0.51219376    -0.80000
O61         O  0.04062704  0.47444064  0.38870584    -0.80000
O62         O  0.97012680  0.44420302  0.52863989    -0.79900
O63         O  0.07499683  0.47064812  0.44182803    -0.80100
O64         O  0.92603369  0.48871032  0.51985411    -0.80000
O65         O  0.05103947  0.44300043  0.52352991    -0.80000
O66         O  0.98114888  0.45089384  0.43629201    -0.80000
C67         C  0.94497768  0.45937583  0.43374108     1.09700
C68         C  0.08604976  0.45353479  0.52256571     1.09600
C69         C  0.06980965  0.46172164  0.40701812     1.09800
C70         C  0.93482143  0.45517880  0.52843278     1.09600
O71         O  0.96768454  0.55877022  0.52524298    -0.80000
O72         O  0.10708067  0.53635915  0.45867976    -0.80000
O73         O  0.98125101  0.52339309  0.40401434    -0.80000
O74         O  0.05188424  0.51572407  0.55981220    -0.79900
O75         O  0.05455448  0.55617914  0.51274942    -0.80000
O76         O  0.97473218  0.56174245  0.44955821    -0.80000
O77         O  0.97413160  0.51360362  0.56678298    -0.79900
O78         O  0.05460922  0.53913221  0.42228362    -0.80000
Co79       Co  0.95347281  0.52482202  0.48489313     1.51500
Co80       Co  0.06063443  0.51554007  0.47674776     1.51700
Co81       Co  0.01887103  0.49231963  0.43394684     1.51600
Co82       Co  0.01173743  0.47928663  0.54109589     1.51500
O83         O  0.00651070  0.50132339  0.48830235    -1.41900
C84         C  0.96607236  0.54722157  0.55882786     1.09700
C85         C  0.09029142  0.54852374  0.42935559     1.09800
C86         C  0.97244689  0.55542669  0.41509658     1.09700
C87         C  0.05955175  0.54825432  0.54735671     1.09700
C88         C  0.74663802  0.29681621  0.31047921     0.03300
C89         C  0.72438090  0.31757233  0.28442990    -0.12800
C90         C  0.69137452  0.30247655  0.26731250     0.00800
C91         C  0.68099505  0.26564373  0.27625648    -0.11400
C92         C  0.70310545  0.24466760  0.30259038     0.03300
C93         C  0.73560103  0.26059223  0.31976802    -0.10800
H94         H  0.73308083  0.34558978  0.27721860     0.08900
H95         H  0.65559922  0.25358186  0.26325907     0.06400
H96         H  0.75228926  0.24475066  0.34049881     0.06300
C97         C  0.79589126  0.71095766  0.25897372     0.03300
C98         C  0.78101250  0.69954183  0.22453671    -0.12800
C99         C  0.74445452  0.71239369  0.21171865     0.00800
C100        C  0.72320786  0.73769497  0.23338403    -0.11400
C101        C  0.73805686  0.74943018  0.26789658     0.03300
C102        C  0.77472898  0.73641481  0.28026838    -0.10800
H103        H  0.79665193  0.67860422  0.20900365     0.08900
H104        H  0.69387569  0.74592732  0.22496369     0.06400
H105        H  0.78542378  0.74397600  0.30782814     0.06300
C106        C  0.68378031  0.30869270  0.71138635     0.03300
C107        C  0.66855336  0.27429076  0.70199342    -0.12800
C108        C  0.68148868  0.25661402  0.66962170     0.00800
C109        C  0.70790071  0.27433855  0.64529263    -0.11400
C110        C  0.72256472  0.30937505  0.65378801     0.03300
C111        C  0.71144351  0.32561545  0.68780851    -0.10800
H112        H  0.64715159  0.26110376  0.72010560     0.08900
H113        H  0.71641857  0.26104124  0.61952093     0.06400
H114        H  0.72363998  0.35198682  0.69569062     0.06300
C115        C  0.31754462  0.75520973  0.26813785     0.03300
C116        C  0.32963221  0.74168746  0.23335007    -0.12800
C117        C  0.31035435  0.71179856  0.21728295     0.00800
C118        C  0.27851956  0.69567491  0.23613056    -0.11400
C119        C  0.26588615  0.70916607  0.27101692     0.03300
C120        C  0.28569673  0.73910923  0.28666629    -0.10800
H121        H  0.35531516  0.75315089  0.21975432     0.08900
H122        H  0.26548364  0.67103796  0.22488770     0.06400
H123        H  0.27703418  0.74942899  0.31394369     0.06300
C124        C  0.31199237  0.69040314  0.73157347     0.03300
C125        C  0.27600844  0.67636077  0.72023574    -0.12800
C126        C  0.25785148  0.69030042  0.68766679     0.00800
C127        C  0.27481355  0.71959891  0.66745584    -0.11400
C128        C  0.31117911  0.73380995  0.67832877     0.03300
C129        C  0.32988243  0.71847811  0.71024424    -0.10800
H130        H  0.26318065  0.65337933  0.73559442     0.08900
H131        H  0.26048034  0.73010572  0.64221994     0.06400
H132        H  0.35894435  0.72729057  0.71784729     0.06300
C133        C  0.38019748  0.33905865  0.68315270     0.03300
C134        C  0.34576868  0.35689241  0.67085628    -0.12800
C135        C  0.32621071  0.34413289  0.63909819     0.00800
C136        C  0.34179684  0.31473060  0.61881620    -0.11400
C137        C  0.37570165  0.29628951  0.63110336     0.03300
C138        C  0.39460956  0.30838710  0.66369018    -0.10800
H139        H  0.33401025  0.38012971  0.68619387     0.08900
H140        H  0.32693453  0.30580215  0.59373076     0.06400
H141        H  0.42018714  0.29374476  0.67428422     0.06300
C142        C  0.73783488  0.70167190  0.74651924     0.03300
C143        C  0.77480552  0.69125683  0.73361208    -0.12800
C144        C  0.79133297  0.70922503  0.70245609     0.00800
C145        C  0.77116265  0.73891901  0.68499031    -0.11400
C146        C  0.73432696  0.75024904  0.69840142     0.03300
C147        C  0.71756845  0.73089842  0.72873063    -0.10800
H148        H  0.78970775  0.66758484  0.74649158     0.08900
H149        H  0.78370438  0.75244301  0.66056044     0.06400
H150        H  0.68852517  0.73814207  0.73825889     0.06300
C151        C  0.34487433  0.26444870  0.31695912     0.03300
C152        C  0.36386198  0.27800307  0.28454116    -0.12800
C153        C  0.35005416  0.31003835  0.26568226     0.00800
C154        C  0.31577071  0.32747420  0.27840384    -0.11400
C155        C  0.29618572  0.31382842  0.31032169     0.03300
C156        C  0.31099687  0.28256348  0.32973368    -0.10800
H157        H  0.39020068  0.26423321  0.27464609     0.08900
H158        H  0.30492695  0.35219152  0.26408164     0.06400
H159        H  0.29614053  0.27229922  0.35469322     0.06300
C160        C  0.11764611  0.43023018  0.53757467    -0.11800
C161        C  0.11807338  0.42011065  0.57586702     0.03700
C162        C  0.15242382  0.40628103  0.59210372    -0.12300
C163        C  0.18636532  0.40179437  0.57048334     0.18500
C164        C  0.18500574  0.40922077  0.53145665    -0.09400
C165        C  0.15090496  0.42413362  0.51544287    -0.02300
H166        H  0.15301002  0.40004243  0.62192728     0.05100
C167        C  0.22224371  0.38851378  0.58955584     0.20500
H168        H  0.15063573  0.43187823  0.48591707     0.10200
C169        C  0.22139497  0.35414288  0.60847415    -0.15700
C170        C  0.25460812  0.34017638  0.62668054     0.03200
C171        C  0.28924364  0.36085420  0.62627907    -0.11000
C172        C  0.28968692  0.39592930  0.60905177    -0.01000
C173        C  0.25644191  0.41002723  0.59086279    -0.06200
H174        H  0.19503650  0.33783702  0.60843713     0.06200
H175        H  0.31637756  0.41186764  0.60873347     0.09600
Br176      Br  0.22841185  0.39922019  0.49880356    -0.05900
Br177      Br  0.07386204  0.42827816  0.60801960    -0.02900
Br178      Br  0.25167767  0.29236896  0.65092757     0.00000
Br179      Br  0.25954053  0.45884294  0.56899920    -0.04400
C180        C  0.07898626  0.57536894  0.57218139    -0.11800
C181        C  0.07847877  0.57209151  0.61194127     0.03700
C182        C  0.10379464  0.59345879  0.63349598    -0.12300
C183        C  0.12861094  0.61924195  0.61626850     0.18500
C184        C  0.12622192  0.62537154  0.57725663    -0.09400
C185        C  0.10185049  0.60341130  0.55551269    -0.02300
H186        H  0.10478104  0.58934855  0.66369147     0.05100
C187        C  0.16008284  0.63636145  0.63820608     0.20500
H188        H  0.10220514  0.60729100  0.52532570     0.10200
C189        C  0.19738256  0.61998473  0.63718131    -0.15700
C190        C  0.22944148  0.63747276  0.65305212     0.03200
C191        C  0.22406496  0.67102683  0.67194000    -0.11000
C192        C  0.18666253  0.68709853  0.67378899    -0.01000
C193        C  0.15475558  0.67022135  0.65659526    -0.06200
H194        H  0.20189005  0.59444020  0.62219596     0.06200
H195        H  0.18255092  0.71330172  0.68766340     0.09600
Br196      Br  0.15711686  0.66260146  0.55251380    -0.05900
Br197      Br  0.04338552  0.54007698  0.63885999    -0.02900
Br198      Br  0.28058334  0.61685905  0.64448332     0.00000
Br199      Br  0.10516229  0.69530321  0.65676871    -0.04400
C200        C  0.23585722  0.68898583  0.29348794    -0.11800
C201        C  0.20028369  0.67698450  0.27787421     0.03700
C202        C  0.17508744  0.65465126  0.29928883    -0.12300
C203        C  0.18333395  0.64625452  0.33712149     0.18500
C204        C  0.21687632  0.66116227  0.35368446    -0.09400
C205        C  0.24336436  0.68117891  0.33170441    -0.02300
H206        H  0.14859926  0.64444217  0.28665463     0.05100
C207        C  0.15755634  0.62102069  0.35872412     0.20500
H208        H  0.26986998  0.69073879  0.34469523     0.10200
C209        C  0.17199305  0.58586389  0.36912923    -0.15700
C210        C  0.14984226  0.56187194  0.39148771     0.03200
C211        C  0.11217312  0.57264302  0.40330157    -0.11000
C212        C  0.09686738  0.60718471  0.39161665    -0.01000
C213        C  0.11962225  0.63165870  0.36992716    -0.06200
H214        H  0.20097230  0.57733216  0.36035684     0.06200
H215        H  0.06807069  0.61578644  0.40081779     0.09600
Br216      Br  0.22653001  0.65716995  0.40671443    -0.05900
Br217      Br  0.18246888  0.69368219  0.22929770    -0.02900
Br218      Br  0.17219060  0.51430447  0.40479990     0.00000
Br219      Br  0.09946504  0.68044427  0.35908181    -0.04400
C220        C  0.26073876  0.33295326  0.32399534    -0.11800
C221        C  0.26327829  0.36152438  0.35022081     0.03700
C222        C  0.22924833  0.37889045  0.36306641    -0.12300
C223        C  0.19240625  0.36823241  0.35012360     0.18500
C224        C  0.18979704  0.33978540  0.32374066    -0.09400
C225        C  0.22390838  0.32240508  0.31080453    -0.02300
H226        H  0.23151425  0.40113122  0.38303637     0.05100
C227        C  0.15752167  0.38881001  0.36300284     0.20500
H228        H  0.22171984  0.30051791  0.29050365     0.10200
C229        C  0.14217256  0.41735382  0.34002491    -0.15700
C230        C  0.11297085  0.44118793  0.35332947     0.03200
C231        C  0.09771322  0.43563796  0.38984664    -0.11000
C232        C  0.11236190  0.40632487  0.41225849    -0.01000
C233        C  0.14231096  0.38332066  0.39938103    -0.06200
H234        H  0.15457035  0.42239276  0.31241168     0.06200
H235        H  0.10119849  0.40193333  0.44047443     0.09600
Br236      Br  0.14031798  0.32355669  0.30527812    -0.05900
Br237      Br  0.31262080  0.37793053  0.36883666    -0.02900
Br238      Br  0.09948932  0.48359493  0.32256474     0.00000
Br239      Br  0.16244220  0.34586887  0.43315525    -0.04400
C240        C  0.82557420  0.69210018  0.68433203    -0.11800
C241        C  0.86132093  0.68613806  0.70341520     0.03700
C242        C  0.89049097  0.66397067  0.68722693    -0.12300
C243        C  0.88380233  0.64707047  0.65263828     0.18500
C244        C  0.84829643  0.65344458  0.63358950    -0.09400
C245        C  0.81985376  0.67630895  0.64913158    -0.02300
H246        H  0.91784605  0.65927346  0.70186988     0.05100
C247        C  0.91315647  0.62220121  0.63605564     0.20500
H248        H  0.79225690  0.68006398  0.63466635     0.10200
C249        C  0.90889900  0.58399954  0.64156983    -0.15700
C250        C  0.92742062  0.55896753  0.61780166     0.03200
C251        C  0.95125092  0.57223912  0.58814179    -0.11000
C252        C  0.95755680  0.61060913  0.58438777    -0.01000
C253        C  0.93870915  0.63552475  0.60821279    -0.06200
H254        H  0.88842928  0.57376013  0.66237686     0.06200
H255        H  0.97577291  0.62131443  0.56194498     0.09600
Br256      Br  0.83650455  0.62990003  0.58699682    -0.05900
Br257      Br  0.87106353  0.70721436  0.75164131    -0.02900
Br258      Br  0.91361253  0.50774121  0.62403294     0.00000
Br259      Br  0.94531108  0.68775623  0.59988806    -0.04400
C260        C  0.90337207  0.42958654  0.54043976    -0.11800
C261        C  0.90840924  0.40429212  0.57081693     0.03700
C262        C  0.87695586  0.38304037  0.58339912    -0.12300
C263        C  0.84010010  0.38594784  0.56623822     0.18500
C264        C  0.83511475  0.41072651  0.53546584    -0.09400
C265        C  0.86660040  0.43220274  0.52286282    -0.02300
H266        H  0.88097666  0.36493610  0.60775097     0.05100
C267        C  0.80710527  0.36511094  0.58334171     0.20500
H268        H  0.86222706  0.45132563  0.49942842     0.10200
C269        C  0.77471768  0.38459728  0.59730925    -0.15700
C270        C  0.74575961  0.36658396  0.61824782     0.03200
C271        C  0.74997028  0.32854132  0.62757878    -0.11000
C272        C  0.78143182  0.30872237  0.61204256    -0.01000
C273        C  0.80944977  0.32649732  0.58967674    -0.06200
H274        H  0.77223191  0.41424813  0.59249914     0.06200
H275        H  0.78482828  0.27928790  0.61799326     0.09600
Br276      Br  0.78607386  0.41642381  0.50972374    -0.05900
Br277      Br  0.95613988  0.39989460  0.59897170    -0.02900
Br278      Br  0.70023007  0.39507132  0.63137257     0.00000
Br279      Br  0.85029539  0.29686519  0.56819795    -0.04400
C280        C  0.78029407  0.31403542  0.32921732    -0.11800
C281        C  0.81179368  0.32860991  0.30839822     0.03700
C282        C  0.83983972  0.35015456  0.32619956    -0.12300
C283        C  0.83768267  0.35645226  0.36491401     0.18500
C284        C  0.80813373  0.33912842  0.38622251    -0.09400
C285        C  0.77953016  0.31835926  0.36829746    -0.02300
H286        H  0.86322844  0.36234656  0.30973115     0.05100
C287        C  0.86536851  0.38240888  0.38227793     0.20500
H288        H  0.75593399  0.30660076  0.38472054     0.10200
C289        C  0.85574308  0.42013426  0.38308899    -0.15700
C290        C  0.88079130  0.44565703  0.39967557     0.03200
C291        C  0.91684211  0.43346917  0.41587075    -0.11000
C292        C  0.92638958  0.39549389  0.41434420    -0.01000
C293        C  0.90106014  0.37016398  0.39776577    -0.06200
H294        H  0.82846039  0.42977402  0.37073747     0.06200
H295        H  0.95363672  0.38532301  0.42627579     0.09600
Br296      Br  0.80527025  0.34361645  0.43968300    -0.05900
Br297      Br  0.81835292  0.31858665  0.25600734    -0.02900
Br298      Br  0.86365980  0.49655321  0.39761298     0.00000
Br299      Br  0.91628785  0.31901228  0.39627729    -0.04400
C300        C  0.82882791  0.69034242  0.27611583    -0.11800
C301        C  0.86512520  0.70687208  0.28298316     0.03700
C302        C  0.89444393  0.68664219  0.30191440    -0.12300
C303        C  0.88771171  0.65015309  0.31419265     0.18500
C304        C  0.85140771  0.63369649  0.30718439    -0.09400
C305        C  0.82254301  0.65361546  0.28773801    -0.02300
H306        H  0.92219752  0.69956464  0.30773508     0.05100
C307        C  0.91664331  0.63065604  0.33798528     0.20500
H308        H  0.79444869  0.64093027  0.28297966     0.10200
C309        C  0.91778578  0.63911242  0.37610370    -0.15700
C310        C  0.93802494  0.61643021  0.40166027     0.03200
C311        C  0.95736891  0.58415482  0.38883426    -0.11000
C312        C  0.95880048  0.57752906  0.35004320    -0.01000
C313        C  0.93847311  0.60049014  0.32467191    -0.06200
H314        H  0.90087151  0.66238880  0.38636144     0.06200
H315        H  0.97408348  0.55354331  0.33955337     0.09600
Br316      Br  0.83880172  0.58527757  0.32648995    -0.05900
Br317      Br  0.87568931  0.75661003  0.26666643    -0.02900
Br318      Br  0.93465844  0.63040855  0.45357375     0.00000
Br319      Br  0.93890587  0.58810306  0.27254438    -0.04400
C320        C  0.66664987  0.21994568  0.66023078    -0.11800
C321        C  0.69185296  0.18899391  0.65927930     0.03700
C322        C  0.67838170  0.15564740  0.64526367    -0.12300
C323        C  0.63947570  0.15242664  0.63363384     0.18500
C324        C  0.61337318  0.18249420  0.63758934    -0.09400
C325        C  0.62727729  0.21623811  0.65030258    -0.02300
H326        H  0.69814934  0.13219591  0.64351372     0.05100
C327        C  0.62685419  0.11770657  0.61684048     0.20500
H328        H  0.60752146  0.23983014  0.65183203     0.10200
C329        C  0.60341108  0.09337523  0.63779588    -0.15700
C330        C  0.58839990  0.06157381  0.62152222     0.03200
C331        C  0.59715746  0.05383276  0.58371716    -0.11000
C332        C  0.62276159  0.07725011  0.56372142    -0.01000
C333        C  0.63728030  0.10911809  0.57982809    -0.06200
H334        H  0.59599444  0.09968361  0.66649537     0.06200
H335        H  0.62957347  0.07225305  0.53454766     0.09600
Br336      Br  0.55880423  0.17888359  0.62575752    -0.05900
Br337      Br  0.74408546  0.19061638  0.67871099    -0.02900
Br338      Br  0.55604146  0.03029586  0.65230814     0.00000
Br339      Br  0.66864089  0.14139132  0.54899831    -0.04400
C340        C  0.45946753  0.09306675  0.53793488    -0.11800
C341        C  0.44085340  0.09524574  0.57312885     0.03700
C342        C  0.42414486  0.12875295  0.58448357    -0.12300
C343        C  0.42689279  0.16080979  0.56182266     0.18500
C344        C  0.44554037  0.15877678  0.52668183    -0.09400
C345        C  0.46129101  0.12499258  0.51479691    -0.02300
H346        H  0.41088918  0.13032501  0.61202944     0.05100
C347        C  0.41314389  0.19654335  0.57696527     0.20500
H348        H  0.47635962  0.12399264  0.48817246     0.10200
C349        C  0.44061420  0.22367860  0.58582220    -0.15700
C350        C  0.42880149  0.25713534  0.60167901     0.03200
C351        C  0.38926001  0.26278493  0.61129581    -0.11000
C352        C  0.36170594  0.23592541  0.60150199    -0.01000
C353        C  0.37328673  0.20350149  0.58363686    -0.06200
H354        H  0.47120432  0.21904999  0.57978866     0.06200
H355        H  0.33108418  0.24010761  0.60769825     0.09600
Br356      Br  0.45149169  0.20178441  0.49480191    -0.05900
Br357      Br  0.44274948  0.05507083  0.60912088    -0.02900
Br358      Br  0.46710569  0.29536004  0.60593182     0.00000
Br359      Br  0.33348568  0.17057561  0.56699102    -0.04400
C360        C  0.46384096  0.07831300  0.41913015    -0.11800
C361        C  0.42269527  0.07877418  0.42237997     0.03700
C362        C  0.40109048  0.10855693  0.40688538    -0.12300
C363        C  0.41988719  0.13777882  0.38793568     0.18500
C364        C  0.46078050  0.13719650  0.38455483    -0.09400
C365        C  0.48231442  0.10775953  0.40007496    -0.02300
H366        H  0.36959376  0.10903719  0.40973871     0.05100
C367        C  0.39681277  0.16876481  0.37142153     0.20500
H368        H  0.51384204  0.10790362  0.39707386     0.10200
C369        C  0.39459232  0.20235369  0.39044480    -0.15700
C370        C  0.37697294  0.23363552  0.37361742     0.03200
C371        C  0.36078191  0.23138860  0.33723351    -0.11000
C372        C  0.36225448  0.19742161  0.31866806    -0.01000
C373        C  0.38038124  0.16633288  0.33534248    -0.06200
H374        H  0.40794526  0.20457641  0.41787698     0.06200
H375        H  0.35028666  0.19541322  0.29061670     0.09600
Br376      Br  0.48849934  0.17599765  0.35875975    -0.05900
Br377      Br  0.39462840  0.04077863  0.44906589    -0.02900
Br378      Br  0.37893609  0.27927978  0.40025374     0.00000
Br379      Br  0.38498208  0.12196720  0.30676074    -0.04400
C380        C  0.61366123  0.04271699  0.39527152    -0.08800
C381        C  0.65238837  0.05195700  0.40540339     0.03700
C382        C  0.67172487  0.08079824  0.38628621    -0.12300
C383        C  0.65296222  0.10124449  0.35750541     0.18500
C384        C  0.61535276  0.09087602  0.34619958    -0.09400
C385        C  0.59652235  0.06135859  0.36424099    -0.02300
H386        H  0.70056980  0.08884736  0.39551563     0.05100
C387        C  0.66919625  0.13708283  0.34421438     0.20500
H388        H  0.56679210  0.05534109  0.35600547     0.10200
C389        C  0.68778303  0.14031721  0.30908887    -0.15700
C390        C  0.69871091  0.17520243  0.29459941     0.03200
C391        C  0.69075823  0.20733813  0.31532285    -0.11000
C392        C  0.67283720  0.20384410  0.35053863    -0.01000
C393        C  0.66189590  0.16926449  0.36489529    -0.06200
H394        H  0.69318019  0.11573802  0.29266554     0.06200
H395        H  0.66701393  0.22832753  0.36687309     0.09600
Br396      Br  0.58624647  0.12002784  0.31015627    -0.05900
Br397      Br  0.67984413  0.02809414  0.44631749    -0.02900
Br398      Br  0.72487801  0.17795817  0.24700068     0.00000
Br399      Br  0.63511345  0.16744280  0.41219095    -0.04400
C400        C  0.44298025  0.88793853  0.54453220    -0.11800
C401        C  0.45157636  0.84928819  0.54556786     0.03700
C402        C  0.42593355  0.82485047  0.56357330    -0.12300
C403        C  0.39172677  0.83771320  0.58067900     0.18500
C404        C  0.38226432  0.87565973  0.57819417    -0.09400
C405        C  0.40777390  0.90028030  0.56044835    -0.02300
H406        H  0.43349981  0.79563203  0.56551699     0.05100
C407        C  0.36915402  0.81198635  0.60485500     0.20500
H408        H  0.40018437  0.92950305  0.55976648     0.10200
C409        C  0.36923257  0.81735966  0.64376598    -0.15700
C410        C  0.35017493  0.79283949  0.66825814     0.03200
C411        C  0.33117264  0.76152077  0.65385605    -0.11000
C412        C  0.33145707  0.75618000  0.61478477    -0.01000
C413        C  0.34990814  0.78112368  0.59035625    -0.06200
H414        H  0.38429434  0.84087401  0.65515713     0.06200
H415        H  0.31757851  0.73211798  0.60306714     0.09600
Br416      Br  0.33470154  0.89531238  0.59842790    -0.05900
Br417      Br  0.49782917  0.82704934  0.52461225    -0.02900
Br418      Br  0.34964385  0.80527705  0.72049540     0.00000
Br419      Br  0.34760490  0.77186410  0.53754533    -0.04400
C420        C  0.71200633  0.78029597  0.67895820    -0.11800
C421        C  0.69350872  0.80915164  0.69881891     0.03700
C422        C  0.67151918  0.83600573  0.67932025    -0.12300
C423        C  0.66809400  0.83501535  0.64016764     0.18500
C424        C  0.68697017  0.80682766  0.62018027    -0.09400
C425        C  0.70849523  0.77961280  0.63960930    -0.02300
H426        H  0.65720804  0.85786914  0.69466492     0.05100
C427        C  0.64357789  0.86285511  0.62060167     0.20500
H428        H  0.72200169  0.75752599  0.62395713     0.10200
C429        C  0.66107013  0.88852418  0.59606202    -0.15700
C430        C  0.63815202  0.91196039  0.57328753     0.03200
C431        C  0.59710976  0.91171220  0.57708235    -0.11000
C432        C  0.57986832  0.88712039  0.60306407    -0.01000
C433        C  0.60268185  0.86197013  0.62382876    -0.06200
H434        H  0.69259261  0.88878818  0.59309403     0.06200
H435        H  0.54834024  0.88557078  0.60523687     0.09600
Br436      Br  0.68277404  0.80358192  0.56649372    -0.05900
Br437      Br  0.69895237  0.81511169  0.75208812    -0.02900
Br438      Br  0.66447431  0.94166797  0.53612591     0.00000
Br439      Br  0.57665119  0.82396239  0.65242896    -0.04400
C440        C  0.59565528  0.87965859  0.41494804    -0.11800
C441        C  0.63310639  0.89135555  0.40417488     0.03700
C442        C  0.65651487  0.86872731  0.38188382    -0.12300
C443        C  0.64274021  0.83471980  0.36912045     0.18500
C444        C  0.60557979  0.82246117  0.38079973    -0.09400
C445        C  0.58254065  0.84484335  0.40374136    -0.02300
H446        H  0.68540841  0.87796680  0.37392222     0.05100
C447        C  0.66710928  0.81313480  0.34283752     0.20500
H448        H  0.55370774  0.83544183  0.41200244     0.10200
C449        C  0.67883192  0.77696814  0.35283005    -0.15700
C450        C  0.70024090  0.75542678  0.32779314     0.03200
C451        C  0.71305395  0.77095457  0.29344537    -0.11000
C452        C  0.70114107  0.80696174  0.28317366    -0.01000
C453        C  0.67780509  0.82785455  0.30736240    -0.06200
H454        H  0.67015817  0.76504964  0.37958390     0.06200
H455        H  0.70966054  0.81861041  0.25629017     0.09600
Br456      Br  0.58399295  0.77644724  0.36480592    -0.05900
Br457      Br  0.65432694  0.93710067  0.42041112    -0.02900
Br458      Br  0.70735913  0.70378258  0.33976616     0.00000
Br459      Br  0.65953540  0.87548050  0.28974723    -0.04400
C460        C  0.45438193  0.91068619  0.38883939    -0.11800
C461        C  0.42010589  0.89522036  0.40422027     0.03700
C462        C  0.39675533  0.87275552  0.38200817    -0.12300
C463        C  0.40760560  0.86447859  0.34503458     0.18500
C464        C  0.44192923  0.87976626  0.32990755    -0.09400
C465        C  0.46459846  0.90297394  0.35159784    -0.02300
H466        H  0.37061484  0.86065104  0.39399391     0.05100
C467        C  0.38509976  0.83667682  0.32449367     0.20500
H468        H  0.49131183  0.91387150  0.33966366     0.10200
C469        C  0.35922075  0.84770534  0.29563622    -0.15700
C470        C  0.33681941  0.82141052  0.27696922     0.03200
C471        C  0.34056232  0.78371286  0.28697385    -0.11000
C472        C  0.36644051  0.77277992  0.31573229    -0.01000
C473        C  0.38849590  0.79895054  0.33458271    -0.06200
H474        H  0.35607985  0.87676535  0.28803480     0.06200
H475        H  0.36932529  0.74381752  0.32362306     0.09600
Br476      Br  0.46125740  0.86773694  0.28108641    -0.05900
Br477      Br  0.40319311  0.90378495  0.45471858    -0.02900
Br478      Br  0.30047192  0.83773170  0.23890318     0.00000
Br479      Br  0.42269367  0.78203792  0.37426500    -0.04400
C480        C  0.58635345  0.43575471  0.09002997    -0.11800
C481        C  0.62554484  0.42354150  0.08768948     0.03700
C482        C  0.64167005  0.40131833  0.11653244    -0.12300
C483        C  0.61917501  0.39053569  0.14778599     0.18500
C484        C  0.57997838  0.40290381  0.15006519    -0.09400
C485        C  0.56406055  0.42554242  0.12147071    -0.02300
H486        H  0.67209441  0.39263491  0.11473902     0.05100
C487        C  0.63717728  0.36745526  0.17830278     0.20500
H488        H  0.53406078  0.43513436  0.12378643     0.10200
C489        C  0.64055401  0.38205303  0.21440343    -0.15700
C490        C  0.65627591  0.36088249  0.24418266     0.03200
C491        C  0.67015383  0.32451066  0.23792142    -0.11000
C492        C  0.66662138  0.30990235  0.20182944    -0.01000
C493        C  0.65029309  0.33092506  0.17221337    -0.06200
H494        H  0.63034986  0.41003151  0.21955793     0.06200
H495        H  0.67726522  0.28217899  0.19647205     0.09600
Br496      Br  0.54674696  0.38891091  0.19126312    -0.05900
Br497      Br  0.65861722  0.43818958  0.04657605    -0.02900
Br498      Br  0.65576040  0.38243055  0.29306412     0.00000
Br499      Br  0.64553523  0.30793952  0.12434490    -0.04400
C500        C  0.62219749  0.58388734  0.05048977    -0.11800
C501        C  0.66332529  0.58084645  0.05212609     0.03700
C502        C  0.68453667  0.60536558  0.07426281    -0.12300
C503        C  0.66545389  0.63307495  0.09483549     0.18500
C504        C  0.62491858  0.63826511  0.09025874    -0.09400
C505        C  0.60385281  0.61391076  0.06829358    -0.02300
H506        H  0.71589419  0.60197274  0.07657639     0.05100
C507        C  0.68746685  0.65369346  0.12346741     0.20500
H508        H  0.57243960  0.61757256  0.06683659     0.10200
C509        C  0.69064166  0.69243597  0.12067645    -0.15700
C510        C  0.70941740  0.71235114  0.14883743     0.03200
C511        C  0.72559675  0.69333747  0.18017552    -0.11000
C512        C  0.72301678  0.65469047  0.18239853    -0.01000
C513        C  0.70424972  0.63486812  0.15465144    -0.06200
H514        H  0.67828302  0.70719537  0.09664785     0.06200
H515        H  0.73496074  0.63969635  0.20664300     0.09600
Br516      Br  0.59586314  0.67613098  0.11553501    -0.05900
Br517      Br  0.69226138  0.54449421  0.02470758    -0.02900
Br518      Br  0.71363213  0.76499529  0.14266223     0.00000
Br519      Br  0.70065932  0.58228488  0.16231472    -0.04400
C520        C  0.42018762  0.57899120  0.04793935    -0.11800
C521        C  0.42293229  0.61809476  0.04549580     0.03700
C522        C  0.40165711  0.64045220  0.07028714    -0.12300
C523        C  0.37836398  0.62467726  0.09862242     0.18500
C524        C  0.37448469  0.58586491  0.10026766    -0.09400
C525        C  0.39458676  0.56351786  0.07465416    -0.02300
H526        H  0.40491156  0.67017768  0.06869367     0.05100
C527        C  0.36153028  0.64870647  0.12828013     0.20500
H528        H  0.39240593  0.53368797  0.07756178     0.10200
C529        C  0.32852498  0.67127481  0.12069914    -0.15700
C530        C  0.31165916  0.69287324  0.14911279     0.03200
C531        C  0.32834555  0.69252306  0.18528077    -0.11000
C532        C  0.36211558  0.67137049  0.19225074    -0.01000
C533        C  0.37850772  0.64942423  0.16437850    -0.06200
H534        H  0.31555130  0.67157339  0.09299532     0.06200
H535        H  0.37520040  0.67111085  0.21999968     0.09600
Br536      Br  0.34452243  0.56197157  0.13903221    -0.05900
Br537      Br  0.45629940  0.64282071  0.00992641    -0.02900
Br538      Br  0.26639124  0.72280203  0.13768708     0.00000
Br539      Br  0.42392261  0.62056712  0.17757174    -0.04400
C540        C  0.46079863  0.43363237  0.08557331    -0.11800
C541        C  0.46681686  0.39481639  0.08629333     0.03700
C542        C  0.45097838  0.37301303  0.11575821    -0.12300
C543        C  0.42836720  0.38910674  0.14433228     0.18500
C544        C  0.42175911  0.42758418  0.14296320    -0.09400
C545        C  0.43802032  0.44933781  0.11417561    -0.02300
H546        H  0.45606144  0.34339546  0.11622782     0.05100
C547        C  0.41018166  0.36566935  0.17447642     0.20500
H548        H  0.43225848  0.47883940  0.11395043     0.10200
C549        C  0.42716025  0.36339415  0.21051166    -0.15700
C550        C  0.40857208  0.34419445  0.24015849     0.03200
C551        C  0.37237994  0.32695333  0.23407110    -0.11000
C552        C  0.35567556  0.32890720  0.19809493    -0.01000
C553        C  0.37408559  0.34816447  0.16856629    -0.06200
H554        H  0.45437546  0.37743109  0.21583513     0.06200
H555        H  0.32755194  0.31629871  0.19324546     0.09600
Br556      Br  0.38971363  0.45182733  0.17936684    -0.05900
Br557      Br  0.49712673  0.37026106  0.04860002    -0.02900
Br558      Br  0.43195409  0.34415302  0.28927876     0.00000
Br559      Br  0.34713805  0.35249345  0.12145560    -0.04400
C560        C  0.62872258  0.57988195  0.92379908    -0.11800
C561        C  0.65936939  0.56462469  0.90195567     0.03700
C562        C  0.68065862  0.58745664  0.87767216    -0.12300
C563        C  0.67029150  0.62467590  0.87249671     0.18500
C564        C  0.63917282  0.63978715  0.89299159    -0.09400
C565        C  0.61958450  0.61780483  0.91942911    -0.02300
H566        H  0.70339457  0.57547111  0.86042132     0.05100
C567        C  0.68784121  0.64525659  0.84105459     0.20500
H568        H  0.59548566  0.62985434  0.93475579     0.10200
C569        C  0.66775108  0.64653578  0.80682411    -0.15700
C570        C  0.68379179  0.66421510  0.77547233     0.03200
C571        C  0.72029292  0.68166776  0.77851314    -0.11000
C572        C  0.74070120  0.67983052  0.81271498    -0.01000
C573        C  0.72476894  0.66163244  0.84394046    -0.06200
H574        H  0.63970620  0.63292592  0.80434987     0.06200
H575        H  0.76899389  0.69281544  0.81515257     0.09600
Br576      Br  0.61987298  0.68899946  0.88267138    -0.05900
Br577      Br  0.67011984  0.51244236  0.89831726    -0.02900
Br578      Br  0.65622588  0.66070811  0.72873355     0.00000
Br579      Br  0.75410700  0.66008056  0.88980821    -0.04400
C580        C  0.59103075  0.44101288  0.88757112    -0.11800
C581        C  0.59206425  0.45195092  0.84915353     0.03700
C582        C  0.60951265  0.42876263  0.82315158    -0.12300
C583        C  0.62506185  0.39424707  0.83401604     0.18500
C584        C  0.62531763  0.38374219  0.87229460    -0.09400
C585        C  0.60801285  0.40691718  0.89855999    -0.02300
H586        H  0.61015278  0.43736100  0.79379088     0.05100
C587        C  0.63930953  0.36958935  0.80436907     0.20500
H588        H  0.60836263  0.39829617  0.92786904     0.10200
C589        C  0.67856783  0.35801740  0.80418661    -0.15700
C590        C  0.69319546  0.33677793  0.77485100     0.03200
C591        C  0.66878828  0.32814430  0.74447210    -0.11000
C592        C  0.62937454  0.33905807  0.74501462    -0.01000
C593        C  0.61440458  0.35935464  0.77478142    -0.06200
H594        H  0.69794631  0.36574581  0.82672867     0.06200
H595        H  0.61029869  0.33210206  0.72196083     0.09600
Br596      Br  0.64846083  0.33825895  0.89053091    -0.05900
Br597      Br  0.56966983  0.49715254  0.82895453    -0.02900
Br598      Br  0.74595274  0.31866239  0.77833583     0.00000
Br599      Br  0.55963729  0.37199947  0.77372850    -0.04400
C600        C  0.47450182  0.44187140  0.87788274    -0.11800
C601        C  0.45423212  0.45787833  0.84679448     0.03700
C602        C  0.44252520  0.43610284  0.81700126    -0.12300
C603        C  0.45156737  0.39835767  0.81580791     0.18500
C604        C  0.47332040  0.38218221  0.84576886    -0.09400
C605        C  0.48395552  0.40378718  0.87679991    -0.02300
H606        H  0.42609300  0.44901267  0.79411793     0.05100
C607        C  0.43788253  0.37796973  0.78222366     0.20500
H608        H  0.50054881  0.39104092  0.89960143     0.10200
C609        C  0.44835841  0.39163586  0.74631836    -0.15700
C610        C  0.42966328  0.37937419  0.71388532     0.03200
C611        C  0.40091935  0.35198893  0.71674747    -0.11000
C612        C  0.39110446  0.33740072  0.75219695    -0.01000
C613        C  0.40878497  0.35057545  0.78484049    -0.06200
H614        H  0.46964938  0.41349752  0.74372445     0.06200
H615        H  0.36845717  0.31676438  0.75457601     0.09600
Br616      Br  0.49110566  0.33168078  0.84443484    -0.05900
Br617      Br  0.44043676  0.50936246  0.84226140    -0.02900
Br618      Br  0.44186176  0.40281359  0.66656370     0.00000
Br619      Br  0.38867391  0.33327723  0.83213718    -0.04400
C620        C  0.33240260  0.67330040  0.76392660    -0.11800
C621        C  0.36438545  0.64918915  0.75868304     0.03700
C622        C  0.38279450  0.63264748  0.78985625    -0.12300
C623        C  0.36932328  0.63956963  0.82630651     0.18500
C624        C  0.33742557  0.66374571  0.83154019    -0.09400
C625        C  0.31900948  0.68031157  0.80036334    -0.02300
H626        H  0.40720476  0.61388663  0.78567892     0.05100
C627        C  0.38879307  0.62092265  0.85843798     0.20500
H628        H  0.29428865  0.69871677  0.80450895     0.10200
C629        C  0.42489205  0.63393194  0.87052375    -0.15700
C630        C  0.44584005  0.61537394  0.89893204     0.03200
C631        C  0.43068153  0.58231745  0.91540753    -0.11000
C632        C  0.39336441  0.57065247  0.90432721    -0.01000
C633        C  0.37248864  0.58962161  0.87610995    -0.06200
H634        H  0.43719184  0.65838541  0.85719626     0.06200
H635        H  0.38095442  0.54565655  0.91647602     0.09600
Br636      Br  0.31847237  0.67497197  0.88076937    -0.05900
Br637      Br  0.38241968  0.63669451  0.70939872    -0.02900
Br638      Br  0.49542470  0.63669872  0.91155785     0.00000
Br639      Br  0.32277129  0.57073630  0.86106203    -0.04400
loop_ 
_geom_bond_atom_site_label_1 
_geom_bond_atom_site_label_2 
_geom_bond_distance 
_geom_bond_site_symmetry_2 
_ccdc_geom_bond_type 
O1            C9   1.252       .  A
O1          Co21   1.942       .  S
O2           C10   1.255       .  A
O2          Co22   1.946       .  S
O3           C11   1.277       .  A
O3          Co23   2.058   1_554  S
O4           C12   1.268       .  A
O4          Co24   2.020       .  S
O5           C11   1.255       .  A
O5          Co22   1.955       .  S
O6           C12   1.257       .  A
O6          Co21   1.952       .  S
O7           C10   1.273       .  A
O7          Co24   2.045   1_554  S
O8            C9   1.275       .  A
O8          Co23   2.041       .  S
C9          C631   1.486       .  S
C10         C500   1.486       .  S
C11         C520   1.493       .  S
C12         C560   1.479       .  S
O13          C26   1.266       .  A
O13         Co21   2.010       .  S
O14          C27   1.273       .  A
O14         Co22   2.028       .  S
O15          C28   1.267       .  A
O15         Co23   1.997       .  S
O16          C29   1.258       .  A
O16         Co24   1.959   1_554  S
O17          C29   1.270       .  A
O17         Co22   2.031       .  S
O18          C28   1.270       .  A
O18         Co21   2.024       .  S
O19          C26   1.263       .  A
O19         Co24   1.962       .  S
O20          C27   1.264       .  A
O20         Co23   1.981   1_554  S
Co21         O25   2.085       .  S
Co22         O25   2.085   1_554  S
Co23         O25   2.122       .  S
Co24         O25   2.114       .  S
C26         C580   1.475       .  S
C27         C540   1.494       .  S
C28         C600   1.497       .  S
C29         C480   1.475       .  S
O30          C38   1.259       .  A
O30         Co50   1.883       .  S
O31          C39   1.257       .  A
O31         Co51   1.954       .  S
O32          C40   1.265       .  A
O32         Co52   2.008   1_545  S
O33          C41   1.279       .  A
O33         Co53   2.020       .  S
O34          C40   1.259       .  A
O34         Co51   1.975       .  S
O35          C41   1.269       .  A
O35         Co50   1.963       .  S
O36          C39   1.270       .  A
O36         Co53   2.016   1_545  S
O37          C38   1.298       .  A
O37         Co52   2.119       .  S
C38         C440   1.470       .  S
C39         C331   1.474       .  S
C40         C380   1.492       .  S
C41         C431   1.470       .  S
O42          C55   1.253       .  A
O42         Co50   1.979       .  S
O43          C56   1.276       .  A
O43         Co51   2.010       .  S
O44          C57   1.267       .  A
O44         Co52   1.868       .  S
O45          C58   1.273       .  A
O45         Co53   1.983   1_545  S
O46          C58   1.275       .  A
O46         Co51   2.017       .  S
O47          C57   1.298       .  A
O47         Co50   2.108       .  S
O48          C55   1.267       .  A
O48         Co53   1.996       .  S
O49          C56   1.272       .  A
O49         Co52   1.980   1_545  S
Co50         O54   1.977       .  S
Co51         O54   2.003   1_545  S
Co52         O54   1.995       .  S
Co53         O54   2.043       .  S
C55         C400   1.487       .  S
C56         C360   1.479       .  S
C57         C460   1.470       .  S
C58         C340   1.477       .  S
O59          C67   1.278       .  A
O59         Co79   2.029       .  S
O60          C68   1.261       .  A
O60         Co80   1.982       .  S
O61          C69   1.270       .  A
O61         Co81   1.896       .  S
O62          C70   1.268       .  A
O62         Co82   1.971   1_655  S
O63          C69   1.298       .  A
O63         Co80   2.115       .  S
O64          C70   1.277       .  A
O64         Co79   2.025       .  S
O65          C68   1.261       .  A
O65         Co82   1.978       .  S
O66          C67   1.275       .  A
O66         Co81   1.987   1_655  S
C67         C291   1.499       .  S
C68         C160   1.459       .  S
C69         C231   1.475       .  S
C70         C260   1.484       .  S
O71          C84   1.260       .  A
O71         Co79   1.969       .  S
O72          C85   1.261       .  A
O72         Co80   1.874       .  S
O73          C86   1.263       .  A
O73         Co81   1.995   1_655  S
O74          C87   1.279       .  A
O74         Co82   2.032       .  S
O75          C87   1.271       .  A
O75         Co80   1.976       .  S
O76          C86   1.254       .  A
O76         Co79   1.962       .  S
O77          C84   1.270       .  A
O77         Co82   2.010   1_655  S
O78          C85   1.296       .  A
O78         Co81   2.132       .  S
Co79         O83   1.998   1_655  S
Co80         O83   1.968       .  S
Co81         O83   2.012       .  S
Co82         O83   2.035       .  S
C84         C251   1.479       .  S
C85         C211   1.471       .  S
C86         C311   1.474       .  S
C87         C180   1.492       .  S
C88         C280   1.479       .  S
C88          C89   1.402       .  A
C88          C93   1.400       .  A
C89          C90   1.403       .  A
C89          H94   1.085       .  S
C90         C491   1.488       .  S
C90          C91   1.412       .  A
C91          C92   1.410       .  A
C91          H95   1.083       .  S
C92         C391   1.481       .  S
C92          C93   1.402       .  A
C93          H96   1.084       .  S
C97         C300   1.471       .  S
C97          C98   1.398       .  A
C97         C102   1.399       .  A
C98          C99   1.403       .  A
C98         H103   1.082       .  S
C99         C511   1.479       .  S
C99         C100   1.404       .  A
C100        C101   1.403       .  A
C100        H104   1.084       .  S
C101        C451   1.475       .  S
C101        C102   1.403       .  A
C102        H105   1.087       .  S
C106        C591   1.472       .  S
C106        C107   1.399       .  A
C106        C111   1.403       .  A
C107        C108   1.397       .  A
C107        H112   1.084       .  S
C108        C320   1.468       .  S
C108        C109   1.403       .  A
C109        C110   1.404       .  A
C109        H113   1.082       .  S
C110        C271   1.490       .  S
C110        C111   1.406       .  A
C111        H114   1.086       .  S
C115        C471   1.473       .  S
C115        C116   1.400       .  A
C115        C120   1.400       .  A
C116        C117   1.402       .  A
C116        H121   1.085       .  S
C117        C531   1.477       .  S
C117        C118   1.405       .  A
C118        C119   1.409       .  A
C118        H122   1.083       .  S
C119        C200   1.491       .  S
C119        C120   1.406       .  A
C120        H123   1.087       .  S
C124        C620   1.470       .  S
C124        C125   1.398       .  A
C124        C129   1.402       .  A
C125        C126   1.398       .  A
C125        H130   1.083       .  S
C126        C191   1.471       .  S
C126        C127   1.400       .  A
C127        C128   1.407       .  A
C127        H131   1.084       .  S
C128        C411   1.487       .  S
C128        C129   1.406       .  A
C129        H132   1.083       .  S
C133        C611   1.475       .  S
C133        C134   1.403       .  A
C133        C138   1.403       .  A
C134        C135   1.401       .  A
C134        H139   1.084       .  S
C135        C171   1.465       .  S
C135        C136   1.397       .  A
C136        C137   1.398       .  A
C136        H140   1.083       .  S
C137        C351   1.483       .  S
C137        C138   1.406       .  A
C138        H141   1.082       .  S
C142        C571   1.469       .  S
C142        C143   1.396       .  A
C142        C147   1.399       .  A
C143        C144   1.397       .  A
C143        H148   1.086       .  S
C144        C240   1.474       .  S
C144        C145   1.405       .  A
C145        C146   1.407       .  A
C145        H149   1.081       .  S
C146        C420   1.482       .  S
C146        C147   1.402       .  A
C147        H150   1.081       .  S
C151        C371   1.483       .  S
C151        C152   1.407       .  A
C151        C156   1.405       .  A
C152        C153   1.405       .  A
C152        H157   1.087       .  S
C153        C551   1.486       .  S
C153        C154   1.405       .  A
C154        C155   1.403       .  A
C154        H158   1.083       .  S
C155        C220   1.477       .  S
C155        C156   1.404       .  A
C156        H159   1.085       .  S
C160        C161   1.405       .  A
C160        C165   1.402       .  A
C161        C162   1.394       .  A
C161       Br177   1.921       .  S
C162        C163   1.403       .  A
C162        H166   1.081       .  S
C163        C167   1.474       .  S
C163        C164   1.411       .  A
C164        C165   1.397       .  A
C164       Br176   1.922       .  S
C165        H168   1.083       .  S
C167        C169   1.403       .  A
C167        C173   1.412       .  A
C169        C170   1.394       .  A
C169        H174   1.082       .  S
C170        C171   1.407       .  A
C170       Br178   1.921       .  S
C171        C172   1.398       .  A
C172        C173   1.396       .  A
C172        H175   1.084       .  S
C173       Br179   1.919       .  S
C180        C181   1.418       .  A
C180        C185   1.409       .  A
C181        C182   1.403       .  A
C181       Br197   1.920       .  S
C182        C183   1.400       .  A
C182        H186   1.083       .  S
C183        C187   1.477       .  S
C183        C184   1.404       .  A
C184        C185   1.400       .  A
C184       Br196   1.921       .  S
C185        H188   1.081       .  S
C187        C189   1.402       .  A
C187        C193   1.408       .  A
C189        C190   1.396       .  A
C189        H194   1.084       .  S
C190        C191   1.407       .  A
C190       Br198   1.921       .  S
C191        C192   1.402       .  A
C192        C193   1.401       .  A
C192        H195   1.084       .  S
C193       Br199   1.916       .  S
C200        C201   1.413       .  A
C200        C205   1.407       .  A
C201        C202   1.403       .  A
C201       Br217   1.918       .  S
C202        C203   1.403       .  A
C202        H206   1.083       .  S
C203        C207   1.480       .  S
C203        C204   1.406       .  A
C204        C205   1.396       .  A
C204       Br216   1.919       .  S
C205        H208   1.080       .  S
C207        C209   1.402       .  A
C207        C213   1.410       .  A
C209        C210   1.396       .  A
C209        H214   1.083       .  S
C210        C211   1.409       .  A
C210       Br218   1.926       .  S
C211        C212   1.405       .  A
C212        C213   1.405       .  A
C212        H215   1.083       .  S
C213       Br219   1.919       .  S
C220        C221   1.408       .  A
C220        C225   1.403       .  A
C221        C222   1.398       .  A
C221       Br237   1.917       .  S
C222        C223   1.402       .  A
C222        H226   1.086       .  S
C223        C227   1.477       .  S
C223        C224   1.408       .  A
C224        C225   1.402       .  A
C224       Br236   1.917       .  S
C225        H228   1.084       .  S
C227        C229   1.402       .  A
C227        C233   1.407       .  A
C229        C230   1.401       .  A
C229        H234   1.084       .  S
C230        C231   1.413       .  A
C230       Br238   1.920       .  S
C231        C232   1.403       .  A
C232        C233   1.396       .  A
C232        H235   1.084       .  S
C233       Br239   1.917       .  S
C240        C241   1.411       .  A
C240        C245   1.400       .  A
C241        C242   1.404       .  A
C241       Br257   1.921       .  S
C242        C243   1.404       .  A
C242        H246   1.081       .  S
C243        C247   1.472       .  S
C243        C244   1.406       .  A
C244        C245   1.392       .  A
C244       Br256   1.922       .  S
C245        H248   1.081       .  S
C247        C249   1.400       .  A
C247        C253   1.404       .  A
C249        C250   1.397       .  A
C249        H254   1.082       .  S
C250        C251   1.414       .  A
C250       Br258   1.924       .  S
C251        C252   1.409       .  A
C252        C253   1.401       .  A
C252        H255   1.082       .  S
C253       Br259   1.921       .  S
C260        C261   1.413       .  A
C260        C265   1.406       .  A
C261        C262   1.397       .  A
C261       Br277   1.919       .  S
C262        C263   1.403       .  A
C262        H266   1.084       .  S
C263        C267   1.488       .  S
C263        C264   1.411       .  A
C264        C265   1.403       .  A
C264       Br276   1.919       .  S
C265        H268   1.083       .  S
C267        C269   1.403       .  A
C267        C273   1.411       .  A
C269        C270   1.399       .  A
C269        H274   1.084       .  S
C270        C271   1.414       .  A
C270       Br278   1.921       .  S
C271        C272   1.406       .  A
C272        C273   1.400       .  A
C272        H275   1.086       .  S
C273       Br279   1.920       .  S
C280        C281   1.409       .  A
C280        C285   1.403       .  A
C281        C282   1.400       .  A
C281       Br297   1.919       .  S
C282        C283   1.402       .  A
C282        H286   1.084       .  S
C283        C287   1.482       .  S
C283        C284   1.409       .  A
C284        C285   1.400       .  A
C284       Br296   1.915       .  S
C285        H288   1.083       .  S
C287        C289   1.400       .  A
C287        C293   1.404       .  A
C289        C290   1.403       .  A
C289        H294   1.083       .  S
C290        C291   1.424       .  A
C290       Br298   1.925       .  S
C291        C292   1.409       .  A
C292        C293   1.404       .  A
C292        H295   1.082       .  S
C293       Br299   1.917       .  S
C300        C301   1.407       .  A
C300        C305   1.402       .  A
C301        C302   1.401       .  A
C301       Br317   1.917       .  S
C302        C303   1.403       .  A
C302        H306   1.084       .  S
C303        C307   1.469       .  S
C303        C304   1.407       .  A
C304        C305   1.393       .  A
C304       Br316   1.921       .  S
C305        H308   1.084       .  S
C307        C309   1.397       .  A
C307        C313   1.405       .  A
C309        C310   1.393       .  A
C309        H314   1.085       .  S
C310        C311   1.418       .  A
C310       Br318   1.927       .  S
C311        C312   1.406       .  A
C312        C313   1.396       .  A
C312        H315   1.080       .  S
C313       Br319   1.916       .  S
C320        C321   1.406       .  A
C320        C325   1.401       .  A
C321        C322   1.395       .  A
C321       Br337   1.918       .  S
C322        C323   1.400       .  A
C322        H326   1.082       .  S
C323        C327   1.468       .  S
C323        C324   1.409       .  A
C324        C325   1.396       .  A
C324       Br336   1.920       .  S
C325        H328   1.085       .  S
C327        C329   1.401       .  A
C327        C333   1.404       .  A
C329        C330   1.398       .  A
C329        H334   1.080       .  S
C330        C331   1.411       .  A
C330       Br338   1.920       .  S
C331        C332   1.408       .  A
C332        C333   1.392       .  A
C332        H335   1.082       .  S
C333       Br339   1.922       .  S
C340        C341   1.409       .  A
C340        C345   1.407       .  A
C341        C342   1.400       .  A
C341       Br357   1.919       .  S
C342        C343   1.404       .  A
C342        H346   1.083       .  S
C343        C347   1.481       .  S
C343        C344   1.407       .  A
C344        C345   1.402       .  A
C344       Br356   1.920       .  S
C345        H348   1.080       .  S
C347        C349   1.405       .  A
C347        C353   1.405       .  A
C349        C350   1.399       .  A
C349        H354   1.080       .  S
C350        C351   1.409       .  A
C350       Br358   1.921       .  S
C351        C352   1.408       .  A
C352        C353   1.397       .  A
C352        H355   1.080       .  S
C353       Br359   1.918       .  S
C360        C361   1.412       .  A
C360        C365   1.407       .  A
C361        C362   1.404       .  A
C361       Br377   1.921       .  S
C362        C363   1.404       .  A
C362        H366   1.082       .  S
C363        C367   1.477       .  S
C363        C364   1.404       .  A
C364        C365   1.394       .  A
C364       Br376   1.921       .  S
C365        H368   1.084       .  S
C367        C369   1.402       .  A
C367        C373   1.406       .  A
C369        C370   1.401       .  A
C369        H374   1.082       .  S
C370        C371   1.412       .  A
C370       Br378   1.919       .  S
C371        C372   1.405       .  A
C372        C373   1.400       .  A
C372        H375   1.083       .  S
C373       Br379   1.919       .  S
C380        C381   1.418       .  A
C380        C385   1.408       .  A
C381        C382   1.406       .  A
C381       Br397   1.919       .  S
C382        C383   1.404       .  A
C382        H386   1.084       .  S
C383        C387   1.484       .  S
C383        C384   1.404       .  A
C384        C385   1.398       .  A
C384       Br396   1.917       .  S
C385        H388   1.084       .  S
C387        C389   1.406       .  A
C387        C393   1.408       .  A
C389        C390   1.407       .  A
C389        H394   1.086       .  S
C390        C391   1.411       .  A
C390       Br398   1.918       .  S
C391        C392   1.400       .  A
C392        C393   1.396       .  A
C392        H395   1.084       .  S
C393       Br399   1.917       .  S
C400        C401   1.424       .  A
C400        C405   1.403       .  A
C401        C402   1.398       .  A
C401       Br417   1.924       .  S
C402        C403   1.399       .  A
C402        H406   1.086       .  S
C403        C407   1.479       .  S
C403        C404   1.407       .  A
C404        C405   1.396       .  A
C404       Br416   1.915       .  S
C405        H408   1.085       .  S
C407        C409   1.402       .  A
C407        C413   1.407       .  A
C409        C410   1.398       .  A
C409        H414   1.083       .  S
C410        C411   1.415       .  A
C410       Br418   1.921       .  S
C411        C412   1.407       .  A
C412        C413   1.397       .  A
C412        H415   1.085       .  S
C413       Br419   1.917       .  S
C420        C421   1.415       .  A
C420        C425   1.406       .  A
C421        C422   1.396       .  A
C421       Br437   1.921       .  S
C422        C423   1.399       .  A
C422        H426   1.082       .  S
C423        C427   1.469       .  S
C423        C424   1.405       .  A
C424        C425   1.396       .  A
C424       Br436   1.922       .  S
C425        H428   1.082       .  S
C427        C429   1.401       .  A
C427        C433   1.405       .  A
C429        C430   1.397       .  A
C429        H434   1.084       .  S
C430        C431   1.411       .  A
C430       Br438   1.919       .  S
C431        C432   1.405       .  A
C432        C433   1.394       .  A
C432        H435   1.083       .  S
C433       Br439   1.921       .  S
C440        C441   1.405       .  A
C440        C445   1.404       .  A
C441        C442   1.397       .  A
C441       Br457   1.911       .  S
C442        C443   1.404       .  A
C442        H446   1.083       .  S
C443        C447   1.481       .  S
C443        C444   1.411       .  A
C444        C445   1.398       .  A
C444       Br456   1.922       .  S
C445        H448   1.086       .  S
C447        C449   1.403       .  A
C447        C453   1.411       .  A
C449        C450   1.397       .  A
C449        H454   1.081       .  S
C450        C451   1.408       .  A
C450       Br458   1.920       .  S
C451        C452   1.402       .  A
C452        C453   1.400       .  A
C452        H455   1.080       .  S
C453       Br459   1.920       .  S
C460        C461   1.411       .  A
C460        C465   1.403       .  A
C461        C462   1.399       .  A
C461       Br477   1.918       .  S
C462        C463   1.404       .  A
C462        H466   1.084       .  S
C463        C467   1.476       .  S
C463        C464   1.406       .  A
C464        C465   1.392       .  A
C464       Br476   1.915       .  S
C465        H468   1.083       .  S
C467        C469   1.405       .  A
C467        C473   1.407       .  A
C469        C470   1.403       .  A
C469        H474   1.084       .  S
C470        C471   1.406       .  A
C470       Br478   1.920       .  S
C471        C472   1.402       .  A
C472        C473   1.397       .  A
C472        H475   1.082       .  S
C473       Br479   1.921       .  S
C480        C481   1.410       .  A
C480        C485   1.401       .  A
C481        C482   1.401       .  A
C481       Br497   1.920       .  S
C482        C483   1.405       .  A
C482        H486   1.086       .  S
C483        C487   1.487       .  S
C483        C484   1.412       .  A
C484        C485   1.401       .  A
C484       Br496   1.920       .  S
C485        H488   1.084       .  S
C487        C489   1.403       .  A
C487        C493   1.410       .  A
C489        C490   1.400       .  A
C489        H494   1.085       .  S
C490        C491   1.414       .  A
C490       Br498   1.919       .  S
C491        C492   1.403       .  A
C492        C493   1.401       .  A
C492        H495   1.083       .  S
C493       Br499   1.916       .  S
C500        C501   1.411       .  A
C500        C505   1.409       .  A
C501        C502   1.404       .  A
C501       Br517   1.918       .  S
C502        C503   1.407       .  A
C502        H506   1.082       .  S
C503        C507   1.483       .  S
C503        C504   1.407       .  A
C504        C505   1.394       .  A
C504       Br516   1.920       .  S
C505        H508   1.083       .  S
C507        C509   1.407       .  A
C507        C513   1.410       .  A
C509        C510   1.403       .  A
C509        H514   1.083       .  S
C510        C511   1.410       .  A
C510       Br518   1.918       .  S
C511        C512   1.401       .  A
C512        C513   1.391       .  A
C512        H515   1.088       .  S
C513       Br519   1.920       .  S
C520        C521   1.418       .  A
C520        C525   1.405       .  A
C521        C522   1.406       .  A
C521       Br537   1.920       .  S
C522        C523   1.402       .  A
C522        H526   1.081       .  S
C523        C527   1.491       .  S
C523        C524   1.410       .  A
C524        C525   1.404       .  A
C524       Br536   1.917       .  S
C525        H528   1.084       .  S
C527        C529   1.409       .  A
C527        C533   1.411       .  A
C529        C530   1.409       .  A
C529        H534   1.081       .  S
C530        C531   1.408       .  A
C530       Br538   1.919       .  S
C531        C532   1.399       .  A
C532        C533   1.396       .  A
C532        H535   1.084       .  S
C533       Br539   1.916       .  S
C540        C541   1.415       .  A
C540        C545   1.407       .  A
C541        C542   1.412       .  A
C541       Br557   1.920       .  S
C542        C543   1.409       .  A
C542        H546   1.082       .  S
C543        C547   1.495       .  S
C543        C544   1.406       .  A
C544        C545   1.399       .  A
C544       Br556   1.916       .  S
C545        H548   1.082       .  S
C547        C549   1.408       .  A
C547        C553   1.411       .  A
C549        C550   1.408       .  A
C549        H554   1.083       .  S
C550        C551   1.410       .  A
C550       Br558   1.922       .  S
C551        C552   1.402       .  A
C552        C553   1.403       .  A
C552        H555   1.084       .  S
C553       Br559   1.916       .  S
C560        C561   1.419       .  A
C560        C565   1.408       .  A
C561        C562   1.395       .  A
C561       Br577   1.924       .  S
C562        C563   1.396       .  A
C562        H566   1.083       .  S
C563        C567   1.465       .  S
C563        C564   1.403       .  A
C564        C565   1.396       .  A
C564       Br576   1.920       .  S
C565        H568   1.081       .  S
C567        C569   1.398       .  A
C567        C573   1.405       .  A
C569        C570   1.392       .  A
C569        H574   1.087       .  S
C570        C571   1.410       .  A
C570       Br578   1.919       .  S
C571        C572   1.403       .  A
C572        C573   1.395       .  A
C572        H575   1.084       .  S
C573       Br579   1.916       .  S
C580        C581   1.417       .  A
C580        C585   1.406       .  A
C581        C582   1.390       .  A
C581       Br597   1.925       .  S
C582        C583   1.399       .  A
C582        H586   1.085       .  S
C583        C587   1.473       .  S
C583        C584   1.408       .  A
C584        C585   1.394       .  A
C584       Br596   1.920       .  S
C585        H588   1.083       .  S
C587        C589   1.403       .  A
C587        C593   1.411       .  A
C589        C590   1.397       .  A
C589        H594   1.083       .  S
C590        C591   1.407       .  A
C590       Br598   1.917       .  S
C591        C592   1.401       .  A
C592        C593   1.394       .  A
C592        H595   1.083       .  S
C593       Br599   1.924       .  S
C600        C601   1.417       .  A
C600        C605   1.412       .  A
C601        C602   1.393       .  A
C601       Br617   1.919       .  S
C602        C603   1.397       .  A
C602        H606   1.085       .  S
C603        C607   1.493       .  S
C603        C604   1.415       .  A
C604        C605   1.414       .  A
C604       Br616   1.919       .  S
C605        H608   1.083       .  S
C607        C609   1.409       .  A
C607        C613   1.413       .  A
C609        C610   1.400       .  A
C609        H614   1.083       .  S
C610        C611   1.405       .  A
C610       Br618   1.920       .  S
C611        C612   1.401       .  A
C612        C613   1.403       .  A
C612        H615   1.083       .  S
C613       Br619   1.916       .  S
C620        C621   1.407       .  A
C620        C625   1.402       .  A
C621        C622   1.397       .  A
C621       Br637   1.920       .  S
C622        C623   1.403       .  A
C622        H626   1.082       .  S
C623        C627   1.472       .  S
C623        C624   1.406       .  A
C624        C625   1.398       .  A
C624       Br636   1.917       .  S
C625        H628   1.083       .  S
C627        C629   1.396       .  A
C627        C633   1.405       .  A
C629        C630   1.397       .  A
C629        H634   1.084       .  S
C630        C631   1.424       .  A
C630       Br638   1.927       .  S
C631        C632   1.407       .  A
C632        C633   1.398       .  A
C632        H635   1.085       .  S
C633       Br639   1.919       .  S
