geometry optimzed in LAMMPS
_audit_creation_date              2020-11-30 
_audit_creation_method            'lammps2cif' 
_symmetry_space_group_name_H-M    'P1' 
_symmetry_Int_Tables_number       1 
_symmetry_cell_setting            triclinic 
loop_ 
_symmetry_equiv_pos_as_xyz 
  x,y,z 
_cell_length_a                    34.27351885180711 
_cell_length_b                    34.321529037636616 
_cell_length_c                    30.415334098315544 
_cell_angle_alpha                 89.88719249239212 
_cell_angle_beta                  90.15089926211296 
_cell_angle_gamma                 119.63996378462174 
loop_ 
_atom_site_label 
_atom_site_type_symbol 
_atom_site_fract_x 
_atom_site_fract_y 
_atom_site_fract_z 
_atom_site_charge 
C1          C  0.25274705  0.49914770  0.16928752     0.03500
C2          C  0.22756262  0.45847481  0.14613366    -0.12650
C3          C  0.22439639  0.45913408  0.10026321     0.01000
C4          C  0.24425094  0.00009368  0.07856997    -0.11170
C5          C  0.27292192  0.04009023  0.10002331     0.03490
C6          C  0.27733981  0.03981688  0.14585541    -0.10600
H7          H  0.21092453  0.42685166  0.16365166     0.09090
H8          H  0.23719192  0.00068063  0.04426459     0.06620
H9          H  0.29737256  0.07104882  0.16329235     0.06460
C10         C  0.24729121  0.99995981  0.35883554     0.03500
C11         C  0.26542177  0.04075886  0.38230875    -0.12650
C12         C  0.26921585  0.04047756  0.42819168     0.01000
C13         C  0.25613285  0.99992782  0.44955319    -0.11170
C14         C  0.23364377  0.45913669  0.42768687     0.03490
C15         C  0.22959581  0.45889583  0.38182549    -0.10600
H16         H  0.27795404  0.07228372  0.36492325     0.09090
H17         H  0.26341748  0.99996324  0.48388125     0.06620
H18         H  0.21346391  0.42735743  0.36417779     0.06460
O19         O  0.33421247  0.22955215  0.46096534    -0.81430
C20         C  0.29350234  0.08085929  0.07268763     0.97930
O21         O  0.26729859  0.08844433  0.04993450    -0.70540
O22         O  0.27009856  0.16508164  0.06758533    -0.74130
Al23       Al  0.27372159  0.13634669  0.01439790     1.48980
C24         C  0.28862207  0.20712017  0.07238237     0.93180
O25         O  0.39566879  0.22968301  0.06733838    -0.80360
O26         O  0.39604353  0.16517126  0.46094168    -0.73910
Al27       Al  0.36319510  0.22608314  0.01416307     1.90120
O28         O  0.41191198  0.17741766  0.04963296    -0.72980
O29         O  0.32291725  0.08836871  0.47850763    -0.72830
O30         O  0.33553952  0.10385427  0.06740174    -0.78490
O31         O  0.27009680  0.10407480  0.46115770    -0.76740
O32         O  0.33361699  0.16624966  0.01424699    -1.12830
O33         O  0.26626941  0.17734224  0.47895058    -0.72020
C34         C  0.29209182  0.21072205  0.45602491     0.98690
C35         C  0.41914552  0.21087320  0.07241034     0.95090
Al36       Al  0.36392895  0.13634075  0.01413365     1.55560
O37         O  0.32196256  0.23306478  0.04948398    -0.76650
C38         C  0.28928934  0.08104029  0.45573124     0.99260
C39         C  0.41903850  0.20720584  0.45599365     0.94140
O40         O  0.41134768  0.23312788  0.47882771    -0.81970
C41         C  0.24651148  0.24668210  0.16891845     0.03500
C42         C  0.26354943  0.22289332  0.14524382    -0.12650
C43         C  0.26840769  0.22783579  0.09956737     0.01000
C44         C  0.25660701  0.25651601  0.07827084    -0.11170
C45         C  0.23459908  0.27555829  0.10009424     0.03490
C46         C  0.23021071  0.27154060  0.14581765    -0.10600
H47         H  0.27468526  0.20242149  0.16237563     0.09090
H48         H  0.26433942  0.26400240  0.04408810     0.06620
H49         H  0.21498088  0.28813754  0.16320156     0.06460
C50         C  0.25298453  0.25379700  0.35935904     0.03500
C51         C  0.27540287  0.23502100  0.38302793    -0.12650
C52         C  0.27124195  0.23087887  0.42879633     0.01000
C53         C  0.24334431  0.24347482  0.45019299    -0.11170
C54         C  0.22528639  0.26653490  0.42849176     0.03490
C55         C  0.23001695  0.27188675  0.38288056    -0.10600
H56         H  0.29364907  0.22132462  0.36607097     0.09090
H57         H  0.23582142  0.23561734  0.48435663     0.06620
H58         H  0.21578256  0.28972792  0.36588926     0.06460
O59         O  0.16445743  0.27053596  0.46084891    -0.81430
C60         C  0.20556882  0.41882670  0.07249177     0.97930
O61         O  0.23251978  0.41258381  0.04929541    -0.70540
O62         O  0.23013352  0.33630383  0.06776328    -0.74130
Al63       Al  0.22633738  0.36363679  0.01417093     1.48980
C64         C  0.21277459  0.29449227  0.07263150     0.93180
O65         O  0.10605981  0.27078083  0.06758884    -0.80360
O66         O  0.10552466  0.33626190  0.46031295    -0.73910
Al67       Al  0.13700755  0.27418941  0.01420991     1.90120
O68         O  0.08760731  0.32141504  0.04903218    -0.72980
O69         O  0.17882159  0.41263838  0.47843125    -0.72830
O70         O  0.16372838  0.39478650  0.06736854    -0.78490
O71         O  0.22972922  0.39445742  0.46050675    -0.76700
O72         O  0.16659940  0.33385586  0.01406944    -1.12830
O73         O  0.23311684  0.32117525  0.47914244    -0.72020
C74         C  0.20634082  0.28814061  0.45597896     0.98690
C75         C  0.08163578  0.28842029  0.07234686     0.95090
Al76       Al  0.13646220  0.36376078  0.01380266     1.55560
O77         O  0.17968331  0.26769291  0.04947649    -0.76650
C78         C  0.21192591  0.41868541  0.45527600     0.99260
C79         C  0.08141410  0.29443812  0.45562180     0.94140
O80         O  0.08788303  0.26767326  0.47896160    -0.81970
C81         C  0.00094440  0.25412942  0.16900178     0.03500
C82         C  0.45993318  0.23545755  0.14537507    -0.12650
C83         C  0.45997244  0.23115641  0.09961985     0.01000
C84         C  0.00036346  0.24377973  0.07821338    -0.11170
C85         C  0.04127263  0.26686007  0.09987336     0.03490
C86         C  0.04183777  0.27208996  0.14549639    -0.10600
H87         H  0.42815635  0.22195283  0.16240195     0.09090
H88         H  0.00010639  0.23586531  0.04409165     0.06620
H89         H  0.07372763  0.28972248  0.16252964     0.06460
C90         C  0.00029172  0.24687660  0.35936090     0.03500
C91         C  0.04124174  0.27151397  0.38243062    -0.12650
C92         C  0.04084410  0.27548322  0.42816301     0.01000
C93         C  0.99997583  0.25648074  0.45001229    -0.11170
C94         C  0.45973878  0.22795201  0.42873626     0.03490
C95         C  0.45966172  0.22320217  0.38303542    -0.10600
H96         H  0.07290546  0.28797739  0.36499912     0.09090
H97         H  0.99967215  0.26390965  0.48418870     0.06620
H98         H  0.42822487  0.20294155  0.36588987     0.06460
C99         C  0.47253535  0.26315045  0.24250136     0.23970
C100        C  0.00108030  0.25294690  0.21789753    -0.24140
C101        C  0.02890843  0.23998948  0.24042230     0.18880
C102        C  0.02853329  0.23780002  0.28631632     0.23910
C103        C  0.99979658  0.24768720  0.31070414    -0.24080
C104        C  0.47170562  0.26024468  0.28838357     0.18810
F105        F  0.44443959  0.27118830  0.31112580    -0.14040
F106        F  0.44626807  0.27717397  0.22232315    -0.16400
F107        F  0.05555803  0.22495915  0.30690836    -0.16410
F108        F  0.05559339  0.22803530  0.21803657    -0.14040
C109        C  0.21126957  0.24068985  0.28786398     0.23970
C110        C  0.25169412  0.25265486  0.31043354    -0.24140
C111        C  0.29009300  0.26188184  0.28582143     0.18880
C112        C  0.28801214  0.25893699  0.23995472     0.23910
C113        C  0.24774491  0.24740695  0.21759593    -0.24080
C114        C  0.20948473  0.23853613  0.24197624     0.18810
F115        F  0.16995718  0.22669426  0.22140118    -0.14040
F116        F  0.17290260  0.22964399  0.31017230    -0.16400
F117        F  0.32590720  0.26889001  0.21727273    -0.16410
F118        F  0.33010597  0.27503680  0.30594015    -0.14040
C119        C  0.28925661  0.01261324  0.28855511     0.23970
C120        C  0.24866522  0.00029630  0.31036419    -0.24140
C121        C  0.20954409  0.48751165  0.28572005     0.18880
C122        C  0.21096400  0.48704780  0.23973780     0.23910
C123        C  0.25155574  0.99932883  0.21784982    -0.24080
C124        C  0.29072466  0.01224900  0.24255738     0.18810
F125        F  0.33009260  0.02358130  0.22210584    -0.14040
F126        F  0.32725040  0.02419988  0.31193273    -0.16400
F127        F  0.17292193  0.47550396  0.21645904    -0.16410
F128        F  0.17018128  0.47602957  0.30625257    -0.14040
C129        C  0.25274708  0.49914774  0.66928754     0.03500
C130        C  0.22756266  0.45847484  0.64613370    -0.12650
C131        C  0.22439642  0.45913408  0.60026325     0.01000
C132        C  0.24425100  0.00009367  0.57856998    -0.11170
C133        C  0.27292196  0.04009024  0.60002331     0.03490
C134        C  0.27733986  0.03981692  0.64585540    -0.10600
H135        H  0.21092457  0.42685169  0.66365172     0.09090
H136        H  0.23719197  0.00068060  0.54426460     0.06620
H137        H  0.29737260  0.07104887  0.66329233     0.06460
C138        C  0.24729123  0.99995984  0.85883556     0.03500
C139        C  0.26542179  0.04075888  0.88230879    -0.12650
C140        C  0.26921587  0.04047756  0.92819171     0.01000
C141        C  0.25613286  0.99992780  0.94955320    -0.11170
C142        C  0.23364379  0.45913669  0.92768686     0.03490
C143        C  0.22959582  0.45889586  0.88182548    -0.10600
H144        H  0.27795407  0.07228375  0.86492330     0.09090
H145        H  0.26341747  0.99996320  0.98388126     0.06620
H146        H  0.21346391  0.42735747  0.86417776     0.06460
O147        O  0.33421247  0.22955212  0.96096530    -0.81430
C148        C  0.29350235  0.08085929  0.57268760     0.97930
O149        O  0.26729859  0.08844432  0.54993448    -0.70540
O150        O  0.27009852  0.16508160  0.56758534    -0.74130
Al151      Al  0.27372158  0.13634668  0.51439789     1.48980
C152        C  0.28862203  0.20712013  0.57238240     0.93180
O153        O  0.39566874  0.22968296  0.56733843    -0.80360
O154        O  0.39604356  0.16517121  0.96094171    -0.73910
Al155      Al  0.36319508  0.22608313  0.51416311     1.90120
O156        O  0.41191199  0.17741767  0.54963292    -0.72980
O157        O  0.32291725  0.08836869  0.97850768    -0.72830
O158        O  0.33553953  0.10385427  0.56740169    -0.78490
O159        O  0.27009682  0.10407479  0.96115772    -0.76740
O160        O  0.33361698  0.16624966  0.51424699    -1.12830
O161        O  0.26626942  0.17734223  0.97895058    -0.72020
C162        C  0.29209182  0.21072203  0.95602488     0.98690
C163        C  0.41914550  0.21087318  0.57241033     0.95090
Al164      Al  0.36392895  0.13634077  0.51413361     1.55560
O165        O  0.32196252  0.23306475  0.54948402    -0.76650
C166        C  0.28928935  0.08104028  0.95573128     0.99260
C167        C  0.41903850  0.20720579  0.95599362     0.94140
O168        O  0.41134767  0.23312785  0.97882764    -0.81970
C169        C  0.24651141  0.24668206  0.66891845     0.03500
C170        C  0.26354936  0.22289327  0.64524384    -0.12650
C171        C  0.26840763  0.22783573  0.59956738     0.01000
C172        C  0.25660694  0.25651595  0.57827084    -0.11170
C173        C  0.23459901  0.27555823  0.60009423     0.03490
C174        C  0.23021064  0.27154056  0.64581764    -0.10600
H175        H  0.27468519  0.20242145  0.66237567     0.09090
H176        H  0.26433937  0.26400233  0.54408811     0.06620
H177        H  0.21498082  0.28813750  0.66320154     0.06460
C178        C  0.25298448  0.25379698  0.85935905     0.03500
C179        C  0.27540283  0.23502098  0.88302793    -0.12650
C180        C  0.27124194  0.23087885  0.92879632     0.01000
C181        C  0.24334429  0.24347480  0.95019300    -0.11170
C182        C  0.22528636  0.26653487  0.92849178     0.03490
C183        C  0.23001691  0.27188672  0.88288058    -0.10600
H184        H  0.29364903  0.22132461  0.86607095     0.09090
H185        H  0.23582142  0.23561732  0.98435665     0.06620
H186        H  0.21578251  0.28972789  0.86588930     0.06460
O187        O  0.16445740  0.27053591  0.96084897    -0.81430
C188        C  0.20556885  0.41882668  0.57249182     0.97930
O189        O  0.23251980  0.41258380  0.54929544    -0.70540
O190        O  0.23013350  0.33630380  0.56776328    -0.74130
Al191      Al  0.22633738  0.36363678  0.51417094     1.48980
C192        C  0.21277456  0.29449223  0.57263148     0.93180
O193        O  0.10605977  0.27078078  0.56758877    -0.80360
O194        O  0.10552467  0.33626184  0.96031291    -0.73910
Al195      Al  0.13700755  0.27418941  0.51420986     1.90120
O196        O  0.08760733  0.32141505  0.54903220    -0.72980
O197        O  0.17882156  0.41263836  0.97843120    -0.72830
O198        O  0.16372841  0.39478648  0.56736860    -0.78490
O199        O  0.22972921  0.39445740  0.96050673    -0.76700
O200        O  0.16659940  0.33385587  0.51406944    -1.12830
O201        O  0.23311683  0.32117524  0.97914244    -0.72020
C202        C  0.20634079  0.28814058  0.95597899     0.98690
C203        C  0.08163577  0.28842026  0.57234683     0.95090
Al204      Al  0.13646222  0.36376080  0.51380271     1.55560
O205        O  0.17968329  0.26769289  0.54947645    -0.76650
C206        C  0.21192590  0.41868540  0.95527596     0.99260
C207        C  0.08141409  0.29443806  0.95562180     0.94140
O208        O  0.08788300  0.26767322  0.97896165    -0.81970
C209        C  0.00094442  0.25412955  0.66900173     0.03500
C210        C  0.45993319  0.23545764  0.64537503    -0.12650
C211        C  0.45997243  0.23115640  0.59961983     0.01000
C212        C  0.00036344  0.24377967  0.57821336    -0.11170
C213        C  0.04127262  0.26686005  0.59987332     0.03490
C214        C  0.04183777  0.27209004  0.64549633    -0.10600
H215        H  0.42815637  0.22195296  0.66240191     0.09090
H216        H  0.00010637  0.23586524  0.54409162     0.06620
H217        H  0.07372763  0.28972260  0.66252957     0.06460
C218        C  0.00029172  0.24687671  0.85936086     0.03500
C219        C  0.04124174  0.27151402  0.88243060    -0.12650
C220        C  0.04084409  0.27548315  0.92816300     0.01000
C221        C  0.99997583  0.25648062  0.95001227    -0.11170
C222        C  0.45973876  0.22795196  0.92873622     0.03490
C223        C  0.45966171  0.22320225  0.88303535    -0.10600
H224        H  0.07290546  0.28797748  0.86499911     0.09090
H225        H  0.99967214  0.26390950  0.98418868     0.06620
H226        H  0.42822485  0.20294168  0.86588978     0.06460
C227        C  0.47253540  0.26315066  0.74250131     0.23970
C228        C  0.00108034  0.25294707  0.71789749    -0.24140
C229        C  0.02890847  0.23998966  0.74042226     0.18880
C230        C  0.02853332  0.23780020  0.78631627     0.23910
C231        C  0.99979660  0.24768736  0.81070410    -0.24080
C232        C  0.47170565  0.26024488  0.78838352     0.18810
F233        F  0.44443963  0.27118850  0.81112575    -0.14040
F234        F  0.44626812  0.27717417  0.72232309    -0.16400
F235        F  0.05555805  0.22495932  0.80690830    -0.16410
F236        F  0.05559342  0.22803548  0.71803653    -0.14040
C237        C  0.21126951  0.24068985  0.78786399     0.23970
C238        C  0.25169406  0.25265485  0.81043355    -0.24140
C239        C  0.29009295  0.26188184  0.78582143     0.18880
C240        C  0.28801208  0.25893698  0.73995472     0.23910
C241        C  0.24774484  0.24740693  0.71759594    -0.24080
C242        C  0.20948467  0.23853613  0.74197625     0.18810
F243        F  0.16995711  0.22669426  0.72140119    -0.14040
F244        F  0.17290255  0.22964399  0.81017231    -0.16400
F245        F  0.32590713  0.26889000  0.71727273    -0.16410
F246        F  0.33010592  0.27503682  0.80594015    -0.14040
C247        C  0.28925665  0.01261329  0.78855513     0.23970
C248        C  0.24866526  0.00029636  0.81036420    -0.24140
C249        C  0.20954413  0.48751176  0.78572006     0.18880
C250        C  0.21096404  0.48704791  0.73973781     0.23910
C251        C  0.25155581  0.99932890  0.71784983    -0.24080
C252        C  0.29072471  0.01224906  0.74255740     0.18810
F253        F  0.33009265  0.02358134  0.72210587    -0.14040
F254        F  0.32725043  0.02419991  0.81193277    -0.16400
F255        F  0.17292198  0.47550410  0.71645905    -0.16410
F256        F  0.17018133  0.47602971  0.80625259    -0.14040
C257        C  0.25274703  0.99914770  0.16928752     0.03500
C258        C  0.22756260  0.95847481  0.14613366    -0.12650
C259        C  0.22439637  0.95913408  0.10026321     0.01000
C260        C  0.24425096  0.50009369  0.07856997    -0.11170
C261        C  0.27292193  0.54009023  0.10002332     0.03490
C262        C  0.27733982  0.53981689  0.14585541    -0.10600
H263        H  0.21092450  0.92685165  0.16365166     0.09090
H264        H  0.23719194  0.50068063  0.04426459     0.06620
H265        H  0.29737257  0.57104883  0.16329235     0.06460
C266        C  0.24729121  0.49995980  0.35883554     0.03500
C267        C  0.26542177  0.54075886  0.38230875    -0.12650
C268        C  0.26921585  0.54047756  0.42819168     0.01000
C269        C  0.25613284  0.49992782  0.44955319    -0.11170
C270        C  0.23364378  0.95913670  0.42768686     0.03490
C271        C  0.22959581  0.95889583  0.38182548    -0.10600
H272        H  0.27795404  0.57228371  0.36492325     0.09090
H273        H  0.26341746  0.49996324  0.48388126     0.06620
H274        H  0.21346391  0.92735744  0.36417778     0.06460
O275        O  0.33421248  0.72955215  0.46096535    -0.81430
C276        C  0.29350235  0.58085930  0.07268763     0.97930
O277        O  0.26729860  0.58844434  0.04993450    -0.70540
O278        O  0.27009857  0.66508165  0.06758533    -0.74130
Al279      Al  0.27372160  0.63634669  0.01439790     1.48980
C280        C  0.28862208  0.70712018  0.07238236     0.93180
O281        O  0.39566880  0.72968303  0.06733836    -0.80360
O282        O  0.39604354  0.66517125  0.46094168    -0.73910
Al283      Al  0.36319510  0.72608315  0.01416305     1.90120
O284        O  0.41191199  0.67741768  0.04963296    -0.72980
O285        O  0.32291724  0.58836870  0.47850763    -0.72830
O286        O  0.33553953  0.60385429  0.06740175    -0.78490
O287        O  0.27009680  0.60407479  0.46115770    -0.76740
O288        O  0.33361700  0.66624967  0.01424699    -1.12830
O289        O  0.26626942  0.67734224  0.47895059    -0.72020
C290        C  0.29209183  0.71072205  0.45602491     0.98690
C291        C  0.41914552  0.71087322  0.07241034     0.95090
Al292      Al  0.36392896  0.63634076  0.01413366     1.55560
O293        O  0.32196256  0.73306479  0.04948396    -0.76650
C294        C  0.28928933  0.58104029  0.45573124     0.99260
C295        C  0.41903851  0.70720583  0.45599366     0.94140
O296        O  0.41134769  0.73312787  0.47882772    -0.81970
C297        C  0.24651147  0.74668208  0.16891844     0.03500
C298        C  0.26354942  0.72289331  0.14524380    -0.12650
C299        C  0.26840770  0.72783580  0.09956735     0.01000
C300        C  0.25660701  0.75651602  0.07827083    -0.11170
C301        C  0.23459908  0.77555829  0.10009424     0.03490
C302        C  0.23021069  0.77154059  0.14581765    -0.10600
H303        H  0.27468524  0.70242147  0.16237561     0.09090
H304        H  0.26433942  0.76400241  0.04408809     0.06620
H305        H  0.21498086  0.78813751  0.16320156     0.06460
C306        C  0.25298452  0.75379696  0.35935903     0.03500
C307        C  0.27540286  0.73502097  0.38302793    -0.12650
C308        C  0.27124196  0.73087887  0.42879633     0.01000
C309        C  0.24334433  0.74347483  0.45019299    -0.11170
C310        C  0.22528641  0.76653490  0.42849175     0.03490
C311        C  0.23001695  0.77188673  0.38288055    -0.10600
H312        H  0.29364905  0.72132458  0.36607097     0.09090
H313        H  0.23582144  0.73561736  0.48435663     0.06620
H314        H  0.21578256  0.78972789  0.36588925     0.06460
O315        O  0.16445744  0.77053596  0.46084890    -0.81430
C316        C  0.20556881  0.91882670  0.07249177     0.97930
O317        O  0.23251977  0.91258381  0.04929541    -0.70540
O318        O  0.23013352  0.83630383  0.06776328    -0.74130
Al319      Al  0.22633737  0.86363678  0.01417093     1.48980
C320        C  0.21277459  0.79449227  0.07263151     0.93180
O321        O  0.10605980  0.77078083  0.06758885    -0.80360
O322        O  0.10552467  0.83626190  0.46031296    -0.73910
Al323      Al  0.13700754  0.77418941  0.01420993     1.90120
O324        O  0.08760730  0.82141503  0.04903217    -0.72980
O325        O  0.17882160  0.91263839  0.47843125    -0.72830
O326        O  0.16372836  0.89478649  0.06736854    -0.78490
O327        O  0.22972923  0.89445742  0.46050674    -0.76700
O328        O  0.16659939  0.83385586  0.01406945    -1.12830
O329        O  0.23311686  0.82117526  0.47914243    -0.72020
C330        C  0.20634083  0.78814062  0.45597895     0.98690
C331        C  0.08163578  0.78842029  0.07234686     0.95090
Al332      Al  0.13646219  0.86376077  0.01380266     1.55560
O333        O  0.17968330  0.76769291  0.04947650    -0.76650
C334        C  0.21192592  0.91868542  0.45527599     0.99260
C335        C  0.08141411  0.79443812  0.45562180     0.94140
O336        O  0.08788304  0.76767326  0.47896159    -0.81970
C337        C  0.00094440  0.75412940  0.16900179     0.03500
C338        C  0.45993318  0.73545755  0.14537508    -0.12650
C339        C  0.45997244  0.73115643  0.09961986     0.01000
C340        C  0.00036346  0.74377974  0.07821339    -0.11170
C341        C  0.04127262  0.76686008  0.09987337     0.03490
C342        C  0.04183776  0.77208995  0.14549640    -0.10600
H343        H  0.42815635  0.72195282  0.16240195     0.09090
H344        H  0.00010639  0.73586533  0.04409166     0.06620
H345        H  0.07372762  0.78972246  0.16252965     0.06460
C346        C  0.00029173  0.74687658  0.35936091     0.03500
C347        C  0.04124175  0.77151396  0.38243063    -0.12650
C348        C  0.04084411  0.77548321  0.42816302     0.01000
C349        C  0.99997584  0.75648073  0.45001230    -0.11170
C350        C  0.45973878  0.72795200  0.42873627     0.03490
C351        C  0.45966173  0.72320216  0.38303543    -0.10600
H352        H  0.07290547  0.78797737  0.36499913     0.09090
H353        H  0.99967216  0.76390965  0.48418871     0.06620
H354        H  0.42822487  0.70294153  0.36588988     0.06460
C355        C  0.47253535  0.76315043  0.24250137     0.23970
C356        C  0.00108030  0.75294687  0.21789754    -0.24140
C357        C  0.02890843  0.73998946  0.24042231     0.18880
C358        C  0.02853330  0.73780000  0.28631632     0.23910
C359        C  0.99979658  0.74768717  0.31070415    -0.24080
C360        C  0.47170561  0.76024466  0.28838358     0.18810
F361        F  0.44443959  0.77118827  0.31112582    -0.14040
F362        F  0.44626806  0.77717394  0.22232317    -0.16400
F363        F  0.05555804  0.72495914  0.30690836    -0.16410
F364        F  0.05559339  0.72803529  0.21803658    -0.14040
C365        C  0.21126955  0.74068981  0.28786398     0.23970
C366        C  0.25169410  0.75265481  0.31043353    -0.24140
C367        C  0.29009298  0.76188179  0.28582142     0.18880
C368        C  0.28801212  0.75893694  0.23995471     0.23910
C369        C  0.24774489  0.74740691  0.21759592    -0.24080
C370        C  0.20948471  0.73853610  0.24197623     0.18810
F371        F  0.16995716  0.72669423  0.22140117    -0.14040
F372        F  0.17290258  0.72964395  0.31017230    -0.16400
F373        F  0.32590717  0.76888996  0.21727272    -0.16410
F374        F  0.33010595  0.77503674  0.30594014    -0.14040
C375        C  0.28925661  0.51261322  0.28855511     0.23970
C376        C  0.24866523  0.50029629  0.31036419    -0.24140
C377        C  0.20954408  0.98751164  0.28572005     0.18880
C378        C  0.21096398  0.98704779  0.23973780     0.23910
C379        C  0.25155575  0.49932882  0.21784982    -0.24080
C380        C  0.29072467  0.51224898  0.24255738     0.18810
F381        F  0.33009260  0.52358127  0.22210585    -0.14040
F382        F  0.32725040  0.52419984  0.31193274    -0.16400
F383        F  0.17292191  0.97550394  0.21645905    -0.16410
F384        F  0.17018127  0.97602955  0.30625258    -0.14040
C385        C  0.25274710  0.99914774  0.66928754     0.03500
C386        C  0.22756269  0.95847484  0.64613369    -0.12650
C387        C  0.22439645  0.95913408  0.60026325     0.01000
C388        C  0.24425099  0.50009367  0.57856998    -0.11170
C389        C  0.27292195  0.54009023  0.60002331     0.03490
C390        C  0.27733985  0.53981691  0.64585541    -0.10600
H391        H  0.21092460  0.92685169  0.66365171     0.09090
H392        H  0.23719196  0.50068059  0.54426460     0.06620
H393        H  0.29737259  0.57104887  0.66329233     0.06460
C394        C  0.24729123  0.49995984  0.85883556     0.03500
C395        C  0.26542180  0.54075889  0.88230879    -0.12650
C396        C  0.26921588  0.54047756  0.92819172     0.01000
C397        C  0.25613287  0.49992780  0.94955320    -0.11170
C398        C  0.23364377  0.95913669  0.92768686     0.03490
C399        C  0.22959582  0.95889585  0.88182548    -0.10600
H400        H  0.27795407  0.57228375  0.86492331     0.09090
H401        H  0.26341749  0.49996320  0.98388126     0.06620
H402        H  0.21346390  0.92735747  0.86417776     0.06460
O403        O  0.33421247  0.72955212  0.96096529    -0.81430
C404        C  0.29350235  0.58085928  0.57268760     0.97930
O405        O  0.26729859  0.58844431  0.54993449    -0.70540
O406        O  0.27009853  0.66508160  0.56758535    -0.74130
Al407      Al  0.27372158  0.63634667  0.51439790     1.48980
C408        C  0.28862204  0.70712013  0.57238241     0.93180
O409        O  0.39566875  0.72968294  0.56733843    -0.80360
O410        O  0.39604357  0.66517122  0.96094171    -0.73910
Al411      Al  0.36319509  0.72608313  0.51416312     1.90120
O412        O  0.41191199  0.67741766  0.54963292    -0.72980
O413        O  0.32291726  0.58836870  0.97850768    -0.72830
O414        O  0.33553953  0.60385425  0.56740169    -0.78490
O415        O  0.27009683  0.60407479  0.96115772    -0.76740
O416        O  0.33361698  0.66624965  0.51424699    -1.12830
O417        O  0.26626942  0.67734224  0.97895058    -0.72020
C418        C  0.29209182  0.71072203  0.95602488     0.98690
C419        C  0.41914551  0.71087317  0.57241033     0.95090
Al420      Al  0.36392894  0.63634075  0.51413362     1.55560
O421        O  0.32196253  0.73306474  0.54948403    -0.76650
C422        C  0.28928936  0.58104028  0.95573129     0.99260
C423        C  0.41903850  0.70720579  0.95599361     0.94140
O424        O  0.41134768  0.73312786  0.97882763    -0.81970
C425        C  0.24651145  0.74668211  0.66891846     0.03500
C426        C  0.26354940  0.72289330  0.64524385    -0.12650
C427        C  0.26840764  0.72783574  0.59956740     0.01000
C428        C  0.25660695  0.75651594  0.57827085    -0.11170
C429        C  0.23459904  0.77555824  0.60009423     0.03490
C430        C  0.23021068  0.77154059  0.64581764    -0.10600
H431        H  0.27468523  0.70242149  0.66237569     0.09090
H432        H  0.26433937  0.76400232  0.54408811     0.06620
H433        H  0.21498087  0.78813755  0.66320153     0.06460
C434        C  0.25298451  0.75379702  0.85935905     0.03500
C435        C  0.27540285  0.73502101  0.88302793    -0.12650
C436        C  0.27124193  0.73087885  0.92879632     0.01000
C437        C  0.24334428  0.74347479  0.95019300    -0.11170
C438        C  0.22528636  0.76653487  0.92849179     0.03490
C439        C  0.23001693  0.77188675  0.88288059    -0.10600
H440        H  0.29364906  0.72132465  0.86607095     0.09090
H441        H  0.23582140  0.73561730  0.98435665     0.06620
H442        H  0.21578254  0.78972793  0.86588932     0.06460
O443        O  0.16445739  0.77053590  0.96084898    -0.81430
C444        C  0.20556888  0.91882669  0.57249181     0.97930
O445        O  0.23251982  0.91258381  0.54929542    -0.70540
O446        O  0.23013353  0.83630381  0.56776326    -0.74130
Al447      Al  0.22633740  0.86363679  0.51417092     1.48980
C448        C  0.21277458  0.79449224  0.57263147     0.93180
O449        O  0.10605978  0.77078077  0.56758876    -0.80360
O450        O  0.10552467  0.83626183  0.96031290    -0.73910
Al451      Al  0.13700757  0.77418942  0.51420985     1.90120
O452        O  0.08760735  0.82141506  0.54903221    -0.72980
O453        O  0.17882155  0.91263835  0.97843120    -0.72830
O454        O  0.16372843  0.89478648  0.56736860    -0.78490
O455        O  0.22972920  0.89445740  0.96050673    -0.76700
O456        O  0.16659942  0.83385587  0.51406944    -1.12830
O457        O  0.23311682  0.82117524  0.97914245    -0.72020
C458        C  0.20634078  0.78814057  0.95597900     0.98690
C459        C  0.08163579  0.78842026  0.57234682     0.95090
Al460      Al  0.13646223  0.86376080  0.51380271     1.55560
O461        O  0.17968332  0.76769289  0.54947644    -0.76650
C462        C  0.21192589  0.91868539  0.95527596     0.99260
C463        C  0.08141408  0.79443805  0.95562180     0.94140
O464        O  0.08788299  0.76767321  0.97896166    -0.81970
C465        C  0.00094443  0.75412958  0.66900172     0.03500
C466        C  0.45993321  0.73545766  0.64537503    -0.12650
C467        C  0.45997244  0.73115639  0.59961982     0.01000
C468        C  0.00036346  0.74377964  0.57821335    -0.11170
C469        C  0.04127263  0.76686005  0.59987332     0.03490
C470        C  0.04183778  0.77209007  0.64549632    -0.10600
H471        H  0.42815639  0.72195299  0.66240191     0.09090
H472        H  0.00010638  0.73586520  0.54409162     0.06620
H473        H  0.07372765  0.78972264  0.66252956     0.06460
C474        C  0.00029171  0.74687674  0.85936085     0.03500
C475        C  0.04124174  0.77151404  0.88243059    -0.12650
C476        C  0.04084409  0.77548314  0.92816299     0.01000
C477        C  0.99997582  0.75648061  0.95001227    -0.11170
C478        C  0.45973877  0.72795196  0.92873621     0.03490
C479        C  0.45966171  0.72320226  0.88303534    -0.10600
H480        H  0.07290546  0.78797750  0.86499910     0.09090
H481        H  0.99967213  0.76390947  0.98418868     0.06620
H482        H  0.42822486  0.70294171  0.86588977     0.06460
C483        C  0.47253542  0.76315069  0.74250130     0.23970
C484        C  0.00108035  0.75294712  0.71789748    -0.24140
C485        C  0.02890848  0.73998970  0.74042225     0.18880
C486        C  0.02853333  0.73780024  0.78631626     0.23910
C487        C  0.99979661  0.74768740  0.81070409    -0.24080
C488        C  0.47170567  0.76024491  0.78838351     0.18810
F489        F  0.44443965  0.77118854  0.81112574    -0.14040
F490        F  0.44626815  0.77717421  0.72232308    -0.16400
F491        F  0.05555805  0.72495935  0.80690830    -0.16410
F492        F  0.05559343  0.72803552  0.71803653    -0.14040
C493        C  0.21126956  0.74068992  0.78786400     0.23970
C494        C  0.25169410  0.75265491  0.81043355    -0.24140
C495        C  0.29009299  0.76188190  0.78582144     0.18880
C496        C  0.28801213  0.75893704  0.73995473     0.23910
C497        C  0.24774489  0.74740699  0.71759594    -0.24080
C498        C  0.20948472  0.73853620  0.74197625     0.18810
F499        F  0.16995716  0.72669433  0.72140119    -0.14040
F500        F  0.17290259  0.72964407  0.81017231    -0.16400
F501        F  0.32590718  0.76889006  0.71727275    -0.16410
F502        F  0.33010596  0.77503688  0.80594016    -0.14040
C503        C  0.28925664  0.51261329  0.78855514     0.23970
C504        C  0.24866526  0.50029637  0.81036421    -0.24140
C505        C  0.20954413  0.98751175  0.78572005     0.18880
C506        C  0.21096405  0.98704790  0.73973780     0.23910
C507        C  0.25155579  0.49932890  0.71784984    -0.24080
C508        C  0.29072470  0.51224905  0.74255740     0.18810
F509        F  0.33009264  0.52358133  0.72210587    -0.14040
F510        F  0.32725042  0.52419990  0.81193277    -0.16400
F511        F  0.17292199  0.97550408  0.71645904    -0.16410
F512        F  0.17018133  0.97602968  0.80625257    -0.14040
C513        C  0.75274704  0.49914770  0.16928752     0.03500
C514        C  0.72756261  0.45847481  0.14613366    -0.12650
C515        C  0.72439638  0.45913408  0.10026321     0.01000
C516        C  0.74425095  0.00009368  0.07856997    -0.11170
C517        C  0.77292192  0.04009023  0.10002331     0.03490
C518        C  0.77733982  0.03981688  0.14585541    -0.10600
H519        H  0.71092451  0.42685165  0.16365165     0.09090
H520        H  0.73719192  0.00068063  0.04426459     0.06620
H521        H  0.79737257  0.07104882  0.16329235     0.06460
C522        C  0.74729122  0.99995980  0.35883554     0.03500
C523        C  0.76542177  0.04075886  0.38230875    -0.12650
C524        C  0.76921586  0.04047756  0.42819168     0.01000
C525        C  0.75613286  0.99992782  0.44955319    -0.11170
C526        C  0.73364377  0.45913669  0.42768687     0.03490
C527        C  0.72959580  0.45889582  0.38182549    -0.10600
H528        H  0.77795405  0.07228372  0.36492325     0.09090
H529        H  0.76341748  0.99996324  0.48388125     0.06620
H530        H  0.71346389  0.42735743  0.36417779     0.06460
O531        O  0.83421247  0.22955214  0.46096534    -0.81430
C532        C  0.79350234  0.08085930  0.07268763     0.97930
O533        O  0.76729859  0.08844434  0.04993450    -0.70540
O534        O  0.77009856  0.16508164  0.06758533    -0.74130
Al535      Al  0.77372159  0.13634669  0.01439790     1.48980
C536        C  0.78862207  0.20712018  0.07238237     0.93180
O537        O  0.89566879  0.22968301  0.06733837    -0.80360
O538        O  0.89604354  0.16517125  0.46094168    -0.73910
Al539      Al  0.86319510  0.22608314  0.01416306     1.90120
O540        O  0.91191198  0.17741767  0.04963296    -0.72980
O541        O  0.82291725  0.08836871  0.47850763    -0.72830
O542        O  0.83553952  0.10385428  0.06740174    -0.78490
O543        O  0.77009680  0.10407479  0.46115769    -0.76740
O544        O  0.83361699  0.16624967  0.01424699    -1.12830
O545        O  0.76626941  0.17734223  0.47895058    -0.72020
C546        C  0.79209182  0.21072204  0.45602490     0.98690
C547        C  0.91914552  0.21087321  0.07241033     0.95090
Al548      Al  0.86392895  0.13634076  0.01413365     1.55560
O549        O  0.82196255  0.23306478  0.04948397    -0.76650
C550        C  0.78928934  0.08104029  0.45573124     0.99260
C551        C  0.91903850  0.20720584  0.45599365     0.94140
O552        O  0.91134768  0.23312788  0.47882770    -0.81970
C553        C  0.74651147  0.24668209  0.16891844     0.03500
C554        C  0.76354942  0.22289332  0.14524381    -0.12650
C555        C  0.76840769  0.22783580  0.09956736     0.01000
C556        C  0.75660701  0.25651602  0.07827083    -0.11170
C557        C  0.73459908  0.27555829  0.10009423     0.03490
C558        C  0.73021070  0.27154060  0.14581764    -0.10600
H559        H  0.77468524  0.20242148  0.16237562     0.09090
H560        H  0.76433943  0.26400241  0.04408809     0.06620
H561        H  0.71498087  0.28813753  0.16320155     0.06460
C562        C  0.75298452  0.25379698  0.35935903     0.03500
C563        C  0.77540286  0.23502098  0.38302793    -0.12650
C564        C  0.77124195  0.23087886  0.42879632     0.01000
C565        C  0.74334431  0.24347482  0.45019299    -0.11170
C566        C  0.72528639  0.26653490  0.42849176     0.03490
C567        C  0.73001694  0.27188673  0.38288055    -0.10600
H568        H  0.79364905  0.22132460  0.36607097     0.09090
H569        H  0.73582142  0.23561734  0.48435663     0.06620
H570        H  0.71578255  0.28972791  0.36588926     0.06460
O571        O  0.66445743  0.27053595  0.46084891    -0.81430
C572        C  0.70556882  0.41882670  0.07249177     0.97930
O573        O  0.73251978  0.41258381  0.04929540    -0.70540
O574        O  0.73013352  0.33630383  0.06776327    -0.74130
Al575      Al  0.72633737  0.36363679  0.01417092     1.48980
C576        C  0.71277460  0.29449227  0.07263149     0.93180
O577        O  0.60605981  0.27078083  0.06758883    -0.80360
O578        O  0.60552466  0.33626189  0.46031296    -0.73910
Al579      Al  0.63700755  0.27418941  0.01420991     1.90120
O580        O  0.58760731  0.32141504  0.04903218    -0.72980
O581        O  0.67882159  0.41263838  0.47843125    -0.72830
O582        O  0.66372837  0.39478650  0.06736854    -0.78490
O583        O  0.72972922  0.39445741  0.46050675    -0.76700
O584        O  0.66659939  0.33385587  0.01406944    -1.12830
O585        O  0.73311684  0.32117525  0.47914244    -0.72020
C586        C  0.70634082  0.28814061  0.45597896     0.98690
C587        C  0.58163578  0.28842029  0.07234686     0.95090
Al588      Al  0.63646219  0.36376078  0.01380266     1.55560
O589        O  0.67968331  0.26769291  0.04947649    -0.76650
C590        C  0.71192591  0.41868541  0.45527599     0.99260
C591        C  0.58141410  0.29443812  0.45562180     0.94140
O592        O  0.58788303  0.26767325  0.47896160    -0.81970
C593        C  0.50094440  0.25412942  0.16900178     0.03500
C594        C  0.95993318  0.23545756  0.14537507    -0.12650
C595        C  0.95997244  0.23115642  0.09961985     0.01000
C596        C  0.50036346  0.24377972  0.07821338    -0.11170
C597        C  0.54127263  0.26686007  0.09987336     0.03490
C598        C  0.54183777  0.27208996  0.14549639    -0.10600
H599        H  0.92815635  0.22195283  0.16240194     0.09090
H600        H  0.50010639  0.23586531  0.04409165     0.06620
H601        H  0.57372763  0.28972248  0.16252963     0.06460
C602        C  0.50029172  0.24687660  0.35936091     0.03500
C603        C  0.54124175  0.27151397  0.38243062    -0.12650
C604        C  0.54084410  0.27548321  0.42816301     0.01000
C605        C  0.49997583  0.25648074  0.45001230    -0.11170
C606        C  0.95973877  0.22795201  0.42873626     0.03490
C607        C  0.95966172  0.22320217  0.38303542    -0.10600
H608        H  0.57290546  0.28797738  0.36499913     0.09090
H609        H  0.49967215  0.26390965  0.48418871     0.06620
H610        H  0.92822487  0.20294155  0.36588986     0.06460
C611        C  0.97253535  0.26315046  0.24250136     0.23970
C612        C  0.50108030  0.25294690  0.21789753    -0.24140
C613        C  0.52890844  0.23998948  0.24042231     0.18880
C614        C  0.52853330  0.23780002  0.28631632     0.23910
C615        C  0.49979658  0.24768720  0.31070414    -0.24080
C616        C  0.97170562  0.26024469  0.28838357     0.18810
F617        F  0.94443960  0.27118831  0.31112580    -0.14040
F618        F  0.94626808  0.27717397  0.22232315    -0.16400
F619        F  0.55555803  0.22495916  0.30690836    -0.16410
F620        F  0.55559340  0.22803531  0.21803657    -0.14040
C621        C  0.71126955  0.24068984  0.28786398     0.23970
C622        C  0.75169410  0.25265484  0.31043353    -0.24140
C623        C  0.79009298  0.26188181  0.28582142     0.18880
C624        C  0.78801212  0.25893697  0.23995471     0.23910
C625        C  0.74774489  0.24740693  0.21759592    -0.24080
C626        C  0.70948471  0.23853612  0.24197623     0.18810
F627        F  0.66995716  0.22669426  0.22140117    -0.14040
F628        F  0.67290258  0.22964398  0.31017229    -0.16400
F629        F  0.82590717  0.26888998  0.21727273    -0.16410
F630        F  0.83010595  0.27503677  0.30594014    -0.14040
C631        C  0.78925662  0.01261324  0.28855511     0.23970
C632        C  0.74866523  0.00029630  0.31036419    -0.24140
C633        C  0.70954407  0.48751166  0.28572004     0.18880
C634        C  0.71096399  0.48704781  0.23973780     0.23910
C635        C  0.75155575  0.99932883  0.21784982    -0.24080
C636        C  0.79072467  0.01224900  0.24255738     0.18810
F637        F  0.83009261  0.02358129  0.22210584    -0.14040
F638        F  0.82725041  0.02419987  0.31193274    -0.16400
F639        F  0.67292192  0.47550398  0.21645904    -0.16410
F640        F  0.67018127  0.47602959  0.30625257    -0.14040
C641        C  0.75274708  0.49914774  0.66928754     0.03500
C642        C  0.72756266  0.45847484  0.64613370    -0.12650
C643        C  0.72439643  0.45913408  0.60026325     0.01000
C644        C  0.74425100  0.00009367  0.57856998    -0.11170
C645        C  0.77292195  0.04009023  0.60002331     0.03490
C646        C  0.77733984  0.03981692  0.64585540    -0.10600
H647        H  0.71092457  0.42685169  0.66365172     0.09090
H648        H  0.73719197  0.00068059  0.54426459     0.06620
H649        H  0.79737258  0.07104887  0.66329233     0.06460
C650        C  0.74729122  0.99995984  0.85883556     0.03500
C651        C  0.76542179  0.04075888  0.88230879    -0.12650
C652        C  0.76921587  0.04047756  0.92819171     0.01000
C653        C  0.75613286  0.99992780  0.94955320    -0.11170
C654        C  0.73364378  0.45913670  0.92768685     0.03490
C655        C  0.72959582  0.45889586  0.88182548    -0.10600
H656        H  0.77795407  0.07228375  0.86492330     0.09090
H657        H  0.76341747  0.99996320  0.98388126     0.06620
H658        H  0.71346390  0.42735748  0.86417776     0.06460
O659        O  0.83421247  0.22955212  0.96096529    -0.81430
C660        C  0.79350235  0.08085928  0.57268760     0.97930
O661        O  0.76729858  0.08844431  0.54993448    -0.70540
O662        O  0.77009852  0.16508159  0.56758534    -0.74130
Al663      Al  0.77372157  0.13634667  0.51439789     1.48980
C664        C  0.78862203  0.20712013  0.57238240     0.93180
O665        O  0.89566874  0.22968296  0.56733842    -0.80360
O666        O  0.89604356  0.16517121  0.96094171    -0.73910
Al667      Al  0.86319508  0.22608313  0.51416311     1.90120
O668        O  0.91191198  0.17741767  0.54963292    -0.72980
O669        O  0.82291725  0.08836869  0.97850768    -0.72830
O670        O  0.83553953  0.10385426  0.56740170    -0.78490
O671        O  0.77009682  0.10407479  0.96115772    -0.76740
O672        O  0.83361697  0.16624966  0.51424699    -1.12830
O673        O  0.76626942  0.17734223  0.97895058    -0.72020
C674        C  0.79209182  0.21072203  0.95602488     0.98690
C675        C  0.91914550  0.21087318  0.57241033     0.95090
Al676      Al  0.86392895  0.13634076  0.51413362     1.55560
O677        O  0.82196252  0.23306474  0.54948401    -0.76650
C678        C  0.78928935  0.08104028  0.95573128     0.99260
C679        C  0.91903850  0.20720579  0.95599362     0.94140
O680        O  0.91134767  0.23312785  0.97882764    -0.81970
C681        C  0.74651143  0.24668208  0.66891845     0.03500
C682        C  0.76354938  0.22289328  0.64524384    -0.12650
C683        C  0.76840763  0.22783573  0.59956738     0.01000
C684        C  0.75660694  0.25651594  0.57827084    -0.11170
C685        C  0.73459902  0.27555823  0.60009423     0.03490
C686        C  0.73021066  0.27154057  0.64581764    -0.10600
H687        H  0.77468521  0.20242146  0.66237567     0.09090
H688        H  0.76433936  0.26400232  0.54408811     0.06620
H689        H  0.71498084  0.28813752  0.66320154     0.06460
C690        C  0.75298450  0.25379699  0.85935905     0.03500
C691        C  0.77540284  0.23502099  0.88302793    -0.12650
C692        C  0.77124193  0.23087885  0.92879632     0.01000
C693        C  0.74334429  0.24347479  0.95019300    -0.11170
C694        C  0.72528636  0.26653487  0.92849178     0.03490
C695        C  0.73001692  0.27188673  0.88288058    -0.10600
H696        H  0.79364904  0.22132462  0.86607095     0.09090
H697        H  0.73582142  0.23561732  0.98435665     0.06620
H698        H  0.71578252  0.28972791  0.86588930     0.06460
O699        O  0.66445740  0.27053591  0.96084896    -0.81430
C700        C  0.70556886  0.41882668  0.57249182     0.97930
O701        O  0.73251981  0.41258380  0.54929543    -0.70540
O702        O  0.73013351  0.33630380  0.56776327    -0.74130
Al703      Al  0.72633738  0.36363678  0.51417093     1.48980
C704        C  0.71277457  0.29449223  0.57263148     0.93180
O705        O  0.60605977  0.27078077  0.56758877    -0.80360
O706        O  0.60552467  0.33626184  0.96031291    -0.73910
Al707      Al  0.63700755  0.27418941  0.51420986     1.90120
O708        O  0.58760734  0.32141505  0.54903221    -0.72980
O709        O  0.67882156  0.41263836  0.97843120    -0.72830
O710        O  0.66372841  0.39478648  0.56736860    -0.78490
O711        O  0.72972920  0.39445740  0.96050672    -0.76700
O712        O  0.66659940  0.33385587  0.51406944    -1.12830
O713        O  0.73311683  0.32117525  0.97914244    -0.72020
C714        C  0.70634079  0.28814058  0.95597899     0.98690
C715        C  0.58163577  0.28842026  0.57234683     0.95090
Al716      Al  0.63646222  0.36376079  0.51380271     1.55560
O717        O  0.67968330  0.26769288  0.54947645    -0.76650
C718        C  0.71192589  0.41868540  0.95527596     0.99260
C719        C  0.58141408  0.29443806  0.95562180     0.94140
O720        O  0.58788299  0.26767322  0.97896165    -0.81970
C721        C  0.50094442  0.25412955  0.66900173     0.03500
C722        C  0.95993319  0.23545764  0.64537504    -0.12650
C723        C  0.95997243  0.23115640  0.59961983     0.01000
C724        C  0.50036345  0.24377967  0.57821336    -0.11170
C725        C  0.54127262  0.26686005  0.59987332     0.03490
C726        C  0.54183777  0.27209004  0.64549633    -0.10600
H727        H  0.92815637  0.22195295  0.66240192     0.09090
H728        H  0.50010637  0.23586523  0.54409162     0.06620
H729        H  0.57372764  0.28972260  0.66252957     0.06460
C730        C  0.50029171  0.24687672  0.85936086     0.03500
C731        C  0.54124174  0.27151403  0.88243059    -0.12650
C732        C  0.54084409  0.27548315  0.92816300     0.01000
C733        C  0.49997582  0.25648062  0.95001227    -0.11170
C734        C  0.95973877  0.22795196  0.92873622     0.03490
C735        C  0.95966171  0.22320224  0.88303535    -0.10600
H736        H  0.57290546  0.28797749  0.86499910     0.09090
H737        H  0.49967213  0.26390949  0.98418869     0.06620
H738        H  0.92822486  0.20294167  0.86588979     0.06460
C739        C  0.97253539  0.26315064  0.74250131     0.23970
C740        C  0.50108034  0.25294708  0.71789749    -0.24140
C741        C  0.52890847  0.23998966  0.74042226     0.18880
C742        C  0.52853332  0.23780020  0.78631627     0.23910
C743        C  0.49979660  0.24768737  0.81070410    -0.24080
C744        C  0.97170565  0.26024487  0.78838352     0.18810
F745        F  0.94443963  0.27118849  0.81112576    -0.14040
F746        F  0.94626812  0.27717416  0.72232309    -0.16400
F747        F  0.55555804  0.22495932  0.80690831    -0.16410
F748        F  0.55559342  0.22803548  0.71803654    -0.14040
C749        C  0.71126953  0.24068988  0.78786399     0.23970
C750        C  0.75169408  0.25265487  0.81043355    -0.24140
C751        C  0.79009296  0.26188186  0.78582144     0.18880
C752        C  0.78801210  0.25893700  0.73995472     0.23910
C753        C  0.74774486  0.24740695  0.71759594    -0.24080
C754        C  0.70948469  0.23853615  0.74197625     0.18810
F755        F  0.66995714  0.22669429  0.72140119    -0.14040
F756        F  0.67290257  0.22964402  0.81017231    -0.16400
F757        F  0.82590715  0.26889001  0.71727274    -0.16410
F758        F  0.83010594  0.27503683  0.80594015    -0.14040
C759        C  0.78925664  0.01261331  0.78855513     0.23970
C760        C  0.74866525  0.00029637  0.81036420    -0.24140
C761        C  0.70954413  0.48751176  0.78572006     0.18880
C762        C  0.71096404  0.48704791  0.73973781     0.23910
C763        C  0.75155579  0.99932890  0.71784983    -0.24080
C764        C  0.79072470  0.01224907  0.74255740     0.18810
F765        F  0.83009265  0.02358137  0.72210587    -0.14040
F766        F  0.82725043  0.02419994  0.81193276    -0.16400
F767        F  0.67292198  0.47550409  0.71645905    -0.16410
F768        F  0.67018133  0.47602971  0.80625258    -0.14040
C769        C  0.75274705  0.99914770  0.16928752     0.03500
C770        C  0.72756261  0.95847481  0.14613366    -0.12650
C771        C  0.72439637  0.95913408  0.10026321     0.01000
C772        C  0.74425096  0.50009369  0.07856996    -0.11170
C773        C  0.77292192  0.54009023  0.10002332     0.03490
C774        C  0.77733981  0.53981688  0.14585541    -0.10600
H775        H  0.71092452  0.92685165  0.16365166     0.09090
H776        H  0.73719194  0.50068063  0.04426459     0.06620
H777        H  0.79737256  0.57104883  0.16329235     0.06460
C778        C  0.74729119  0.49995979  0.35883554     0.03500
C779        C  0.76542175  0.54075885  0.38230875    -0.12650
C780        C  0.76921584  0.54047755  0.42819168     0.01000
C781        C  0.75613285  0.49992781  0.44955319    -0.11170
C782        C  0.73364378  0.95913669  0.42768686     0.03490
C783        C  0.72959582  0.95889583  0.38182548    -0.10600
H784        H  0.77795402  0.57228371  0.36492325     0.09090
H785        H  0.76341747  0.49996323  0.48388125     0.06620
H786        H  0.71346391  0.92735744  0.36417778     0.06460
O787        O  0.83421248  0.72955214  0.46096535    -0.81430
C788        C  0.79350234  0.58085930  0.07268763     0.97930
O789        O  0.76729859  0.58844434  0.04993450    -0.70540
O790        O  0.77009856  0.66508164  0.06758533    -0.74130
Al791      Al  0.77372160  0.63634669  0.01439790     1.48980
C792        C  0.78862207  0.70712018  0.07238236     0.93180
O793        O  0.89566879  0.72968303  0.06733837    -0.80360
O794        O  0.89604354  0.66517124  0.46094168    -0.73910
Al795      Al  0.86319510  0.72608315  0.01416306     1.90120
O796        O  0.91191198  0.67741768  0.04963297    -0.72980
O797        O  0.82291724  0.58836870  0.47850763    -0.72830
O798        O  0.83553952  0.60385429  0.06740175    -0.78490
O799        O  0.77009680  0.60407479  0.46115770    -0.76740
O800        O  0.83361700  0.66624967  0.01424699    -1.12830
O801        O  0.76626942  0.67734223  0.47895059    -0.72020
C802        C  0.79209183  0.71072204  0.45602491     0.98690
C803        C  0.91914552  0.71087322  0.07241034     0.95090
Al804      Al  0.86392896  0.63634076  0.01413366     1.55560
O805        O  0.82196255  0.73306479  0.04948396    -0.76650
C806        C  0.78928933  0.58104028  0.45573124     0.99260
C807        C  0.91903851  0.70720583  0.45599365     0.94140
O808        O  0.91134769  0.73312787  0.47882771    -0.81970
C809        C  0.74651146  0.74668208  0.16891844     0.03500
C810        C  0.76354942  0.72289331  0.14524380    -0.12650
C811        C  0.76840769  0.72783580  0.09956735     0.01000
C812        C  0.75660701  0.75651602  0.07827083    -0.11170
C813        C  0.73459908  0.77555829  0.10009424     0.03490
C814        C  0.73021069  0.77154058  0.14581765    -0.10600
H815        H  0.77468524  0.70242147  0.16237561     0.09090
H816        H  0.76433943  0.76400242  0.04408809     0.06620
H817        H  0.71498086  0.78813751  0.16320156     0.06460
C818        C  0.75298452  0.75379696  0.35935903     0.03500
C819        C  0.77540286  0.73502097  0.38302793    -0.12650
C820        C  0.77124196  0.73087886  0.42879633     0.01000
C821        C  0.74334433  0.74347483  0.45019299    -0.11170
C822        C  0.72528641  0.76653490  0.42849175     0.03490
C823        C  0.73001695  0.77188672  0.38288055    -0.10600
H824        H  0.79364905  0.72132457  0.36607097     0.09090
H825        H  0.73582144  0.73561736  0.48435663     0.06620
H826        H  0.71578256  0.78972789  0.36588925     0.06460
O827        O  0.66445744  0.77053596  0.46084890    -0.81430
C828        C  0.70556881  0.91882670  0.07249177     0.97930
O829        O  0.73251977  0.91258381  0.04929541    -0.70540
O830        O  0.73013352  0.83630383  0.06776328    -0.74130
Al831      Al  0.72633737  0.86363679  0.01417093     1.48980
C832        C  0.71277459  0.79449227  0.07263151     0.93180
O833        O  0.60605981  0.77078083  0.06758885    -0.80360
O834        O  0.60552467  0.83626189  0.46031295    -0.73910
Al835      Al  0.63700755  0.77418941  0.01420992     1.90120
O836        O  0.58760730  0.82141504  0.04903218    -0.72980
O837        O  0.67882160  0.91263838  0.47843125    -0.72830
O838        O  0.66372837  0.89478650  0.06736854    -0.78490
O839        O  0.72972923  0.89445742  0.46050674    -0.76700
O840        O  0.66659939  0.83385586  0.01406945    -1.12830
O841        O  0.73311686  0.82117526  0.47914243    -0.72020
C842        C  0.70634083  0.78814061  0.45597895     0.98690
C843        C  0.58163578  0.78842030  0.07234687     0.95090
Al844      Al  0.63646219  0.86376077  0.01380266     1.55560
O845        O  0.67968331  0.76769291  0.04947650    -0.76650
C846        C  0.71192592  0.91868541  0.45527599     0.99260
C847        C  0.58141411  0.79443812  0.45562180     0.94140
O848        O  0.58788304  0.76767326  0.47896159    -0.81970
C849        C  0.50094440  0.75412940  0.16900179     0.03500
C850        C  0.95993318  0.73545755  0.14537508    -0.12650
C851        C  0.95997243  0.73115643  0.09961986     0.01000
C852        C  0.50036346  0.74377974  0.07821339    -0.11170
C853        C  0.54127263  0.76686008  0.09987337     0.03490
C854        C  0.54183777  0.77208995  0.14549640    -0.10600
H855        H  0.92815635  0.72195282  0.16240195     0.09090
H856        H  0.50010639  0.73586533  0.04409166     0.06620
H857        H  0.57372762  0.78972246  0.16252965     0.06460
C858        C  0.50029172  0.74687658  0.35936091     0.03500
C859        C  0.54124175  0.77151396  0.38243063    -0.12650
C860        C  0.54084411  0.77548321  0.42816302     0.01000
C861        C  0.49997584  0.75648073  0.45001230    -0.11170
C862        C  0.95973878  0.72795200  0.42873627     0.03490
C863        C  0.95966173  0.72320215  0.38303543    -0.10600
H864        H  0.57290546  0.78797737  0.36499913     0.09090
H865        H  0.49967216  0.76390964  0.48418871     0.06620
H866        H  0.92822488  0.70294153  0.36588988     0.06460
C867        C  0.97253535  0.76315043  0.24250137     0.23970
C868        C  0.50108030  0.75294687  0.21789754    -0.24140
C869        C  0.52890843  0.73998946  0.24042231     0.18880
C870        C  0.52853330  0.73780000  0.28631633     0.23910
C871        C  0.49979658  0.74768717  0.31070415    -0.24080
C872        C  0.97170562  0.76024466  0.28838358     0.18810
F873        F  0.94443959  0.77118827  0.31112582    -0.14040
F874        F  0.94626806  0.77717394  0.22232317    -0.16400
F875        F  0.55555804  0.72495914  0.30690836    -0.16410
F876        F  0.55559339  0.72803529  0.21803658    -0.14040
C877        C  0.71126954  0.74068981  0.28786398     0.23970
C878        C  0.75169410  0.75265481  0.31043353    -0.24140
C879        C  0.79009298  0.76188178  0.28582142     0.18880
C880        C  0.78801212  0.75893693  0.23995471     0.23910
C881        C  0.74774488  0.74740691  0.21759592    -0.24080
C882        C  0.70948471  0.73853609  0.24197623     0.18810
F883        F  0.66995715  0.72669423  0.22140117    -0.14040
F884        F  0.67290258  0.72964394  0.31017230    -0.16400
F885        F  0.82590717  0.76888995  0.21727272    -0.16410
F886        F  0.83010595  0.77503674  0.30594014    -0.14040
C887        C  0.78925659  0.51261320  0.28855511     0.23970
C888        C  0.74866521  0.50029629  0.31036419    -0.24140
C889        C  0.70954409  0.98751164  0.28572005     0.18880
C890        C  0.71096400  0.98704779  0.23973780     0.23910
C891        C  0.75155574  0.49932882  0.21784982    -0.24080
C892        C  0.79072465  0.51224896  0.24255738     0.18810
F893        F  0.83009258  0.52358123  0.22210585    -0.14040
F894        F  0.82725037  0.52419981  0.31193274    -0.16400
F895        F  0.67292192  0.97550394  0.21645904    -0.16410
F896        F  0.67018128  0.97602955  0.30625258    -0.14040
C897        C  0.75274709  0.99914774  0.66928754     0.03500
C898        C  0.72756267  0.95847484  0.64613369    -0.12650
C899        C  0.72439644  0.95913408  0.60026324     0.01000
C900        C  0.74425100  0.50009367  0.57856998    -0.11170
C901        C  0.77292196  0.54009023  0.60002331     0.03490
C902        C  0.77733985  0.53981691  0.64585540    -0.10600
H903        H  0.71092458  0.92685169  0.66365171     0.09090
H904        H  0.73719197  0.50068059  0.54426459     0.06620
H905        H  0.79737259  0.57104887  0.66329233     0.06460
C906        C  0.74729123  0.49995985  0.85883556     0.03500
C907        C  0.76542180  0.54075889  0.88230879    -0.12650
C908        C  0.76921588  0.54047756  0.92819172     0.01000
C909        C  0.75613287  0.49992781  0.94955320    -0.11170
C910        C  0.73364378  0.95913669  0.92768686     0.03490
C911        C  0.72959581  0.95889585  0.88182548    -0.10600
H912        H  0.77795407  0.57228376  0.86492330     0.09090
H913        H  0.76341749  0.49996321  0.98388126     0.06620
H914        H  0.71346390  0.92735747  0.86417776     0.06460
O915        O  0.83421247  0.72955212  0.96096529    -0.81430
C916        C  0.79350235  0.58085928  0.57268760     0.97930
O917        O  0.76729859  0.58844431  0.54993449    -0.70540
O918        O  0.77009853  0.66508159  0.56758535    -0.74130
Al919      Al  0.77372158  0.63634667  0.51439790     1.48980
C920        C  0.78862204  0.70712013  0.57238241     0.93180
O921        O  0.89566875  0.72968294  0.56733843    -0.80360
O922        O  0.89604357  0.66517122  0.96094172    -0.73910
Al923      Al  0.86319508  0.72608312  0.51416312     1.90120
O924        O  0.91191199  0.67741766  0.54963291    -0.72980
O925        O  0.82291726  0.58836869  0.97850769    -0.72830
O926        O  0.83553953  0.60385425  0.56740169    -0.78490
O927        O  0.77009683  0.60407480  0.96115772    -0.76740
O928        O  0.83361698  0.66624965  0.51424699    -1.12830
O929        O  0.76626942  0.67734224  0.97895057    -0.72020
C930        C  0.79209182  0.71072203  0.95602488     0.98690
C931        C  0.91914551  0.71087317  0.57241033     0.95090
Al932      Al  0.86392895  0.63634075  0.51413361     1.55560
O933        O  0.82196253  0.73306474  0.54948402    -0.76650
C934        C  0.78928935  0.58104028  0.95573129     0.99260
C935        C  0.91903850  0.70720579  0.95599361     0.94140
O936        O  0.91134767  0.73312786  0.97882763    -0.81970
C937        C  0.74651145  0.74668210  0.66891846     0.03500
C938        C  0.76354940  0.72289330  0.64524385    -0.12650
C939        C  0.76840764  0.72783574  0.59956739     0.01000
C940        C  0.75660695  0.75651594  0.57827084    -0.11170
C941        C  0.73459904  0.77555824  0.60009423     0.03490
C942        C  0.73021068  0.77154059  0.64581764    -0.10600
H943        H  0.77468523  0.70242149  0.66237568     0.09090
H944        H  0.76433938  0.76400232  0.54408811     0.06620
H945        H  0.71498087  0.78813755  0.66320153     0.06460
C946        C  0.75298451  0.75379702  0.85935905     0.03500
C947        C  0.77540285  0.73502101  0.88302793    -0.12650
C948        C  0.77124193  0.73087885  0.92879632     0.01000
C949        C  0.74334428  0.74347479  0.95019300    -0.11170
C950        C  0.72528636  0.76653487  0.92849179     0.03490
C951        C  0.73001692  0.77188675  0.88288059    -0.10600
H952        H  0.79364905  0.72132465  0.86607095     0.09090
H953        H  0.73582141  0.73561731  0.98435665     0.06620
H954        H  0.71578253  0.78972793  0.86588931     0.06460
O955        O  0.66445739  0.77053590  0.96084898    -0.81430
C956        C  0.70556887  0.91882669  0.57249181     0.97930
O957        O  0.73251982  0.91258381  0.54929543    -0.70540
O958        O  0.73013352  0.83630380  0.56776327    -0.74130
Al959      Al  0.72633740  0.86363679  0.51417093     1.48980
C960        C  0.71277458  0.79449224  0.57263147     0.93180
O961        O  0.60605978  0.77078077  0.56758876    -0.80360
O962        O  0.60552467  0.83626183  0.96031291    -0.73910
Al963      Al  0.63700757  0.77418941  0.51420985     1.90120
O964        O  0.58760735  0.82141505  0.54903220    -0.72980
O965        O  0.67882156  0.91263835  0.97843120    -0.72830
O966        O  0.66372843  0.89478648  0.56736860    -0.78490
O967        O  0.72972920  0.89445740  0.96050673    -0.76700
O968        O  0.66659942  0.83385587  0.51406943    -1.12830
O969        O  0.73311682  0.82117524  0.97914245    -0.72020
C970        C  0.70634078  0.78814057  0.95597900     0.98690
C971        C  0.58163579  0.78842026  0.57234682     0.95090
Al972      Al  0.63646223  0.86376079  0.51380271     1.55560
O973        O  0.67968332  0.76769289  0.54947644    -0.76650
C974        C  0.71192589  0.91868539  0.95527596     0.99260
C975        C  0.58141409  0.79443806  0.95562180     0.94140
O976        O  0.58788299  0.76767321  0.97896166    -0.81970
C977        C  0.50094443  0.75412958  0.66900172     0.03500
C978        C  0.95993320  0.73545766  0.64537503    -0.12650
C979        C  0.95997244  0.73115639  0.59961982     0.01000
C980        C  0.50036346  0.74377964  0.57821335    -0.11170
C981        C  0.54127263  0.76686004  0.59987331     0.03490
C982        C  0.54183779  0.77209006  0.64549632    -0.10600
H983        H  0.92815638  0.72195299  0.66240190     0.09090
H984        H  0.50010638  0.73586520  0.54409162     0.06620
H985        H  0.57372765  0.78972263  0.66252956     0.06460
C986        C  0.50029172  0.74687674  0.85936085     0.03500
C987        C  0.54124175  0.77151404  0.88243059    -0.12650
C988        C  0.54084409  0.77548314  0.92816299     0.01000
C989        C  0.49997583  0.75648061  0.95001227    -0.11170
C990        C  0.95973876  0.72795196  0.92873621     0.03490
C991        C  0.95966171  0.72320226  0.88303534    -0.10600
H992        H  0.57290547  0.78797750  0.86499910     0.09090
H993        H  0.49967213  0.76390948  0.98418868     0.06620
H994        H  0.92822485  0.70294171  0.86588977     0.06460
C995        C  0.97253541  0.76315069  0.74250129     0.23970
C996        C  0.50108036  0.75294711  0.71789748    -0.24140
C997        C  0.52890849  0.73998970  0.74042226     0.18880
C998        C  0.52853333  0.73780023  0.78631626     0.23910
C999        C  0.49979661  0.74768740  0.81070409    -0.24080
C1000       C  0.97170566  0.76024492  0.78838351     0.18810
F1001       F  0.94443964  0.77118854  0.81112574    -0.14040
F1002       F  0.94626814  0.77717421  0.72232307    -0.16400
F1003       F  0.55555805  0.72495935  0.80690830    -0.16410
F1004       F  0.55559343  0.72803552  0.71803653    -0.14040
C1005       C  0.71126955  0.74068992  0.78786399     0.23970
C1006       C  0.75169410  0.75265491  0.81043355    -0.24140
C1007       C  0.79009299  0.76188190  0.78582144     0.18880
C1008       C  0.78801212  0.75893704  0.73995473     0.23910
C1009       C  0.74774489  0.74740699  0.71759594    -0.24080
C1010       C  0.70948471  0.73853619  0.74197625     0.18810
F1011       F  0.66995716  0.72669433  0.72140119    -0.14040
F1012       F  0.67290259  0.72964406  0.81017231    -0.16400
F1013       F  0.82590718  0.76889005  0.71727275    -0.16410
F1014       F  0.83010596  0.77503687  0.80594016    -0.14040
C1015       C  0.78925664  0.51261330  0.78855513     0.23970
C1016       C  0.74866526  0.50029638  0.81036420    -0.24140
C1017       C  0.70954412  0.98751173  0.78572006     0.18880
C1018       C  0.71096404  0.98704789  0.73973781     0.23910
C1019       C  0.75155579  0.49932890  0.71784984    -0.24080
C1020       C  0.79072470  0.51224906  0.74255740     0.18810
F1021       F  0.83009264  0.52358134  0.72210587    -0.14040
F1022       F  0.82725042  0.52419992  0.81193276    -0.16400
F1023       F  0.67292197  0.97550405  0.71645904    -0.16410
F1024       F  0.67018131  0.97602966  0.80625258    -0.14040
loop_ 
_geom_bond_atom_site_label_1 
_geom_bond_atom_site_label_2 
_geom_bond_distance 
_geom_bond_site_symmetry_2 
_ccdc_geom_bond_type 
C1            C2   1.414       .  A
C1          C262   1.415       .  A
C1          C379   1.478       .  S
C2            C3   1.400       .  A
C2            H7   1.084       .  S
C3          C260   1.388       .  A
C3           C60   1.471       .  S
C4            C5   1.393       .  A
C4          C259   1.388   1_545  A
C4            H8   1.073       .  S
C5            C6   1.402       .  A
C5           C20   1.473       .  S
C6          C257   1.415   1_545  A
C6            H9   1.084       .  S
C10          C11   1.413   1_565  A
C10         C271   1.413       .  A
C10         C120   1.475   1_565  S
C11          C12   1.402       .  A
C11          H16   1.084       .  S
C12          C13   1.393   1_545  A
C12          C38   1.472       .  S
C13         C270   1.389       .  A
C13          H17   1.073       .  S
C14          C15   1.401       .  A
C14         C269   1.389       .  A
C14          C78   1.470       .  S
C15         C266   1.413       .  A
C15          H18   1.084       .  S
O19          C34   1.265       .  A
O19        Al155   1.930       .  S
C20          O30   1.265       .  A
C20          O21   1.257       .  A
O21         Al23   1.886       .  S
O22          C24   1.265       .  A
O22         Al23   1.932       .  S
Al23        O159   1.932   1_554  S
Al23        O161   1.886   1_554  S
Al23         O32   1.784       .  S
C24          C43   1.470       .  S
C24          O37   1.257       .  A
O25          C35   1.265       .  A
O25         Al27   1.930       .  S
O26          C39   1.265       .  A
O26        Al164   1.932       .  S
Al27         O37   1.885       .  S
Al27        O147   1.930   1_554  S
Al27        O168   1.884   1_554  S
Al27         O32   1.785       .  S
O28          C35   1.257       .  A
O28         Al36   1.887       .  S
O29          C38   1.257       .  A
O29        Al164   1.890       .  S
O30         Al36   1.935       .  S
O31          C38   1.265       .  A
O31        Al151   1.932       .  S
O32         Al36   1.785       .  S
O33          C34   1.257       .  A
O33        Al151   1.886       .  S
C34          C52   1.469       .  S
C35          C83   1.470       .  S
Al36        O154   1.932   1_554  S
Al36        O157   1.890   1_554  S
C39          C94   1.470       .  S
C39          O40   1.256       .  A
O40        Al155   1.884       .  S
C41          C42   1.415       .  A
C41          C46   1.414       .  A
C41         C113   1.481       .  S
C42          C43   1.400       .  A
C42          H47   1.083       .  S
C43          C44   1.394       .  A
C44          C45   1.389       .  A
C44          H48   1.072       .  S
C45          C46   1.398       .  A
C45          C64   1.468       .  S
C46          H49   1.083       .  S
C50          C51   1.417       .  A
C50          C55   1.416       .  A
C50         C110   1.489       .  S
C51          C52   1.399       .  A
C51          H56   1.082       .  S
C52          C53   1.392       .  A
C53          C54   1.388       .  A
C53          H57   1.073       .  S
C54          C55   1.398       .  A
C54          C74   1.467       .  S
C55          H58   1.083       .  S
O59          C74   1.261       .  A
O59        Al195   1.913       .  S
C60          O70   1.261       .  A
C60          O61   1.264       .  A
O61         Al63   1.914       .  S
O62          C64   1.261       .  A
O62         Al63   1.915       .  S
Al63        O199   1.916   1_554  S
Al63        O201   1.912   1_554  S
Al63         O72   1.780       .  S
C64          O77   1.263       .  A
O65          C75   1.261       .  A
O65         Al67   1.913       .  S
O66          C79   1.261       .  A
O66        Al204   1.915       .  S
Al67         O77   1.911       .  S
Al67        O187   1.913   1_554  S
Al67        O208   1.911   1_554  S
Al67         O72   1.780       .  S
O68          C75   1.263       .  A
O68         Al76   1.913       .  S
O69          C78   1.264       .  A
O69        Al204   1.916       .  S
O70         Al76   1.917       .  S
O71          C78   1.261       .  A
O71        Al191   1.916       .  S
O72         Al76   1.780       .  S
O73          C74   1.263       .  A
O73        Al191   1.912       .  S
C75          C85   1.467       .  S
Al76        O194   1.915   1_554  S
Al76        O197   1.916   1_554  S
C79          C92   1.468       .  S
C79          O80   1.263       .  A
O80        Al195   1.911       .  S
C81          C86   1.416       .  A
C81         C594   1.417   1_455  A
C81         C100   1.488       .  S
C82          C83   1.400       .  A
C82         C593   1.417       .  A
C82          H87   1.083       .  S
C83         C596   1.392       .  A
C84          C85   1.388       .  A
C84         C595   1.392   1_455  A
C84          H88   1.072       .  S
C85          C86   1.398       .  A
C86          H89   1.083       .  S
C90          C91   1.414       .  A
C90         C607   1.415   1_455  A
C90         C103   1.480   1_455  S
C91          C92   1.399       .  A
C91          H96   1.083       .  S
C92          C93   1.389   1_455  A
C93         C606   1.393       .  A
C93          H97   1.072       .  S
C94          C95   1.400       .  A
C94         C605   1.393       .  A
C95         C602   1.415       .  A
C95          H98   1.083       .  S
C99         C104   1.398       .  A
C99         C612   1.408       .  A
C99         F106   1.358       .  S
C100        C101   1.411       .  A
C100        C611   1.408   1_455  A
C101        C102   1.398       .  A
C101        F108   1.358       .  S
C102        C103   1.404   1_455  A
C102        F107   1.358       .  S
C103        C616   1.407       .  A
C104        C615   1.407       .  A
C104        F105   1.358       .  S
C109        C110   1.412       .  A
C109        C114   1.397       .  A
C109        F116   1.358       .  S
C110        C111   1.409       .  A
C111        C112   1.398       .  A
C111        F118   1.358       .  S
C112        C113   1.407       .  A
C112        F117   1.358       .  S
C113        C114   1.404       .  A
C114        F115   1.358       .  S
C119        C120   1.406       .  A
C119        C124   1.400       .  A
C119        F126   1.358       .  S
C120        C377   1.402   1_545  A
C121        C122   1.400       .  A
C121        C376   1.402       .  A
C121        F128   1.358       .  S
C122        C379   1.407       .  A
C122        F127   1.358       .  S
C123        C124   1.404   1_565  A
C123        C378   1.407       .  A
C123        C257   1.478       .  S
C124        F125   1.358       .  S
C129        C130   1.414       .  A
C129        C390   1.415       .  A
C129        C507   1.478       .  S
C130        C131   1.400       .  A
C130        H135   1.084       .  S
C131        C388   1.388       .  A
C131        C188   1.471       .  S
C132        C387   1.388   1_545  A
C132        C133   1.393       .  A
C132        H136   1.073       .  S
C133        C134   1.402       .  A
C133        C148   1.473       .  S
C134        C385   1.415   1_545  A
C134        H137   1.084       .  S
C138        C139   1.413   1_565  A
C138        C399   1.413       .  A
C138        C248   1.475   1_565  S
C139        C140   1.402       .  A
C139        H144   1.084       .  S
C140        C141   1.393   1_545  A
C140        C166   1.472       .  S
C141        C398   1.389       .  A
C141        H145   1.073       .  S
C142        C397   1.389       .  A
C142        C143   1.401       .  A
C142        C206   1.470       .  S
C143        C394   1.413       .  A
C143        H146   1.084       .  S
O147        C162   1.265       .  A
C148        O158   1.265       .  A
C148        O149   1.257       .  A
O149       Al151   1.886       .  S
O150        C152   1.265       .  A
O150       Al151   1.932       .  S
Al151       O160   1.784       .  S
C152        C171   1.470       .  S
C152        O165   1.257       .  A
O153        C163   1.265       .  A
O153       Al155   1.930       .  S
O154        C167   1.265       .  A
Al155       O165   1.885       .  S
Al155       O160   1.785       .  S
O156        C163   1.257       .  A
O156       Al164   1.887       .  S
O157        C166   1.257       .  A
O158       Al164   1.935       .  S
O159        C166   1.265       .  A
O160       Al164   1.785       .  S
O161        C162   1.257       .  A
C162        C180   1.469       .  S
C163        C211   1.470       .  S
C167        C222   1.470       .  S
C167        O168   1.256       .  A
C169        C170   1.415       .  A
C169        C174   1.414       .  A
C169        C241   1.481       .  S
C170        C171   1.400       .  A
C170        H175   1.083       .  S
C171        C172   1.394       .  A
C172        C173   1.389       .  A
C172        H176   1.072       .  S
C173        C174   1.398       .  A
C173        C192   1.468       .  S
C174        H177   1.083       .  S
C178        C179   1.417       .  A
C178        C183   1.416       .  A
C178        C238   1.489       .  S
C179        C180   1.399       .  A
C179        H184   1.082       .  S
C180        C181   1.392       .  A
C181        C182   1.388       .  A
C181        H185   1.073       .  S
C182        C183   1.398       .  A
C182        C202   1.467       .  S
C183        H186   1.083       .  S
O187        C202   1.261       .  A
C188        O198   1.261       .  A
C188        O189   1.264       .  A
O189       Al191   1.914       .  S
O190        C192   1.261       .  A
O190       Al191   1.915       .  S
Al191       O200   1.780       .  S
C192        O205   1.263       .  A
O193        C203   1.261       .  A
O193       Al195   1.913       .  S
O194        C207   1.261       .  A
Al195       O205   1.911       .  S
Al195       O200   1.780       .  S
O196        C203   1.263       .  A
O196       Al204   1.913       .  S
O197        C206   1.264       .  A
O198       Al204   1.917       .  S
O199        C206   1.261       .  A
O200       Al204   1.780       .  S
O201        C202   1.263       .  A
C203        C213   1.467       .  S
C207        C220   1.468       .  S
C207        O208   1.263       .  A
C209        C722   1.417   1_455  A
C209        C214   1.416       .  A
C209        C228   1.488       .  S
C210        C721   1.417       .  A
C210        C211   1.400       .  A
C210        H215   1.083       .  S
C211        C724   1.392       .  A
C212        C723   1.392   1_455  A
C212        C213   1.388       .  A
C212        H216   1.072       .  S
C213        C214   1.398       .  A
C214        H217   1.083       .  S
C218        C219   1.414       .  A
C218        C735   1.415   1_455  A
C218        C231   1.480   1_455  S
C219        C220   1.399       .  A
C219        H224   1.083       .  S
C220        C221   1.389   1_455  A
C221        C734   1.393       .  A
C221        H225   1.072       .  S
C222        C733   1.393       .  A
C222        C223   1.400       .  A
C223        C730   1.415       .  A
C223        H226   1.083       .  S
C227        C740   1.408       .  A
C227        C232   1.398       .  A
C227        F234   1.358       .  S
C228        C739   1.408   1_455  A
C228        C229   1.411       .  A
C229        C230   1.398       .  A
C229        F236   1.358       .  S
C230        C231   1.404   1_455  A
C230        F235   1.358       .  S
C231        C744   1.407       .  A
C232        C743   1.407       .  A
C232        F233   1.358       .  S
C237        C238   1.412       .  A
C237        C242   1.397       .  A
C237        F244   1.358       .  S
C238        C239   1.409       .  A
C239        C240   1.398       .  A
C239        F246   1.358       .  S
C240        C241   1.407       .  A
C240        F245   1.358       .  S
C241        C242   1.404       .  A
C242        F243   1.358       .  S
C247        C248   1.406       .  A
C247        C252   1.400       .  A
C247        F254   1.358       .  S
C248        C505   1.402   1_545  A
C249        C504   1.402       .  A
C249        C250   1.400       .  A
C249        F256   1.358       .  S
C250        C507   1.407       .  A
C250        F255   1.358       .  S
C251        C506   1.407       .  A
C251        C252   1.404   1_565  A
C251        C385   1.478       .  S
C252        F253   1.358       .  S
C257        C258   1.414       .  A
C258        C259   1.400       .  A
C258        H263   1.084       .  S
C259        C316   1.471       .  S
C260        C261   1.393       .  A
C260        H264   1.073       .  S
C261        C262   1.402       .  A
C261        C276   1.473       .  S
C262        H265   1.084       .  S
C266        C267   1.413       .  A
C266        C376   1.475       .  S
C267        C268   1.402       .  A
C267        H272   1.084       .  S
C268        C269   1.393       .  A
C268        C294   1.472       .  S
C269        H273   1.073       .  S
C270        C271   1.401       .  A
C270        C334   1.470       .  S
C271        H274   1.084       .  S
O275        C290   1.265       .  A
O275       Al411   1.930       .  S
C276        O286   1.265       .  A
C276        O277   1.257       .  A
O277       Al279   1.886       .  S
O278        C280   1.265       .  A
O278       Al279   1.932       .  S
Al279       O415   1.932   1_554  S
Al279       O417   1.886   1_554  S
Al279       O288   1.784       .  S
C280        C299   1.470       .  S
C280        O293   1.257       .  A
O281        C291   1.265       .  A
O281       Al283   1.930       .  S
O282        C295   1.265       .  A
O282       Al420   1.932       .  S
Al283       O403   1.930   1_554  S
Al283       O424   1.884   1_554  S
Al283       O293   1.885       .  S
Al283       O288   1.785       .  S
O284        C291   1.257       .  A
O284       Al292   1.887       .  S
O285        C294   1.257       .  A
O285       Al420   1.890       .  S
O286       Al292   1.935       .  S
O287        C294   1.265       .  A
O287       Al407   1.932       .  S
O288       Al292   1.785       .  S
O289        C290   1.257       .  A
O289       Al407   1.886       .  S
C290        C308   1.469       .  S
C291        C339   1.470       .  S
Al292       O410   1.932   1_554  S
Al292       O413   1.890   1_554  S
C295        C350   1.470       .  S
C295        O296   1.256       .  A
O296       Al411   1.884       .  S
C297        C298   1.415       .  A
C297        C302   1.414       .  A
C297        C369   1.481       .  S
C298        C299   1.400       .  A
C298        H303   1.083       .  S
C299        C300   1.394       .  A
C300        C301   1.389       .  A
C300        H304   1.072       .  S
C301        C302   1.398       .  A
C301        C320   1.468       .  S
C302        H305   1.083       .  S
C306        C307   1.417       .  A
C306        C311   1.416       .  A
C306        C366   1.489       .  S
C307        C308   1.399       .  A
C307        H312   1.082       .  S
C308        C309   1.392       .  A
C309        C310   1.388       .  A
C309        H313   1.073       .  S
C310        C311   1.398       .  A
C310        C330   1.467       .  S
C311        H314   1.083       .  S
O315        C330   1.261       .  A
O315       Al451   1.913       .  S
C316        O326   1.261       .  A
C316        O317   1.264       .  A
O317       Al319   1.914       .  S
O318        C320   1.261       .  A
O318       Al319   1.915       .  S
Al319       O455   1.916   1_554  S
Al319       O457   1.912   1_554  S
Al319       O328   1.780       .  S
C320        O333   1.263       .  A
O321        C331   1.261       .  A
O321       Al323   1.913       .  S
O322        C335   1.261       .  A
O322       Al460   1.915       .  S
Al323       O443   1.913   1_554  S
Al323       O464   1.911   1_554  S
Al323       O333   1.911       .  S
Al323       O328   1.780       .  S
O324        C331   1.263       .  A
O324       Al332   1.913       .  S
O325        C334   1.264       .  A
O325       Al460   1.916       .  S
O326       Al332   1.917       .  S
O327        C334   1.261       .  A
O327       Al447   1.916       .  S
O328       Al332   1.780       .  S
O329        C330   1.263       .  A
O329       Al447   1.912       .  S
C331        C341   1.467       .  S
Al332       O450   1.915   1_554  S
Al332       O453   1.916   1_554  S
C335        C348   1.468       .  S
C335        O336   1.263       .  A
O336       Al451   1.911       .  S
C337        C850   1.417   1_455  A
C337        C342   1.416       .  A
C337        C356   1.488       .  S
C338        C849   1.417       .  A
C338        C339   1.400       .  A
C338        H343   1.083       .  S
C339        C852   1.392       .  A
C340        C851   1.392   1_455  A
C340        C341   1.388       .  A
C340        H344   1.072       .  S
C341        C342   1.398       .  A
C342        H345   1.083       .  S
C346        C347   1.414       .  A
C346        C863   1.415   1_455  A
C346        C359   1.480   1_455  S
C347        C348   1.399       .  A
C347        H352   1.083       .  S
C348        C349   1.389   1_455  A
C349        C862   1.393       .  A
C349        H353   1.072       .  S
C350        C861   1.393       .  A
C350        C351   1.400       .  A
C351        C858   1.415       .  A
C351        H354   1.083       .  S
C355        C868   1.408       .  A
C355        C360   1.398       .  A
C355        F362   1.358       .  S
C356        C867   1.408   1_455  A
C356        C357   1.411       .  A
C357        C358   1.398       .  A
C357        F364   1.358       .  S
C358        C359   1.404   1_455  A
C358        F363   1.358       .  S
C359        C872   1.407       .  A
C360        C871   1.407       .  A
C360        F361   1.358       .  S
C365        C366   1.412       .  A
C365        C370   1.397       .  A
C365        F372   1.358       .  S
C366        C367   1.409       .  A
C367        C368   1.398       .  A
C367        F374   1.358       .  S
C368        C369   1.407       .  A
C368        F373   1.358       .  S
C369        C370   1.404       .  A
C370        F371   1.358       .  S
C375        C376   1.406       .  A
C375        C380   1.400       .  A
C375        F382   1.358       .  S
C377        C378   1.400       .  A
C377        F384   1.358       .  S
C378        F383   1.358       .  S
C379        C380   1.404       .  A
C380        F381   1.358       .  S
C385        C386   1.414       .  A
C386        C387   1.400       .  A
C386        H391   1.084       .  S
C387        C444   1.471       .  S
C388        C389   1.393       .  A
C388        H392   1.073       .  S
C389        C390   1.402       .  A
C389        C404   1.473       .  S
C390        H393   1.084       .  S
C394        C395   1.413       .  A
C394        C504   1.475       .  S
C395        C396   1.402       .  A
C395        H400   1.084       .  S
C396        C397   1.393       .  A
C396        C422   1.472       .  S
C397        H401   1.073       .  S
C398        C399   1.401       .  A
C398        C462   1.470       .  S
C399        H402   1.084       .  S
O403        C418   1.265       .  A
C404        O414   1.265       .  A
C404        O405   1.257       .  A
O405       Al407   1.886       .  S
O406        C408   1.265       .  A
O406       Al407   1.932       .  S
Al407       O416   1.784       .  S
C408        C427   1.470       .  S
C408        O421   1.257       .  A
O409        C419   1.265       .  A
O409       Al411   1.930       .  S
O410        C423   1.265       .  A
Al411       O421   1.885       .  S
Al411       O416   1.785       .  S
O412        C419   1.257       .  A
O412       Al420   1.887       .  S
O413        C422   1.257       .  A
O414       Al420   1.935       .  S
O415        C422   1.265       .  A
O416       Al420   1.785       .  S
O417        C418   1.257       .  A
C418        C436   1.469       .  S
C419        C467   1.470       .  S
C423        C478   1.470       .  S
C423        O424   1.256       .  A
C425        C426   1.415       .  A
C425        C430   1.414       .  A
C425        C497   1.481       .  S
C426        C427   1.400       .  A
C426        H431   1.083       .  S
C427        C428   1.394       .  A
C428        C429   1.389       .  A
C428        H432   1.072       .  S
C429        C430   1.398       .  A
C429        C448   1.468       .  S
C430        H433   1.083       .  S
C434        C435   1.417       .  A
C434        C439   1.416       .  A
C434        C494   1.489       .  S
C435        C436   1.399       .  A
C435        H440   1.082       .  S
C436        C437   1.392       .  A
C437        C438   1.388       .  A
C437        H441   1.073       .  S
C438        C439   1.398       .  A
C438        C458   1.467       .  S
C439        H442   1.083       .  S
O443        C458   1.261       .  A
C444        O454   1.261       .  A
C444        O445   1.264       .  A
O445       Al447   1.914       .  S
O446        C448   1.261       .  A
O446       Al447   1.915       .  S
Al447       O456   1.780       .  S
C448        O461   1.263       .  A
O449        C459   1.261       .  A
O449       Al451   1.913       .  S
O450        C463   1.261       .  A
Al451       O461   1.911       .  S
Al451       O456   1.780       .  S
O452        C459   1.263       .  A
O452       Al460   1.913       .  S
O453        C462   1.264       .  A
O454       Al460   1.917       .  S
O455        C462   1.261       .  A
O456       Al460   1.780       .  S
O457        C458   1.263       .  A
C459        C469   1.467       .  S
C463        C476   1.468       .  S
C463        O464   1.263       .  A
C465        C978   1.417   1_455  A
C465        C470   1.416       .  A
C465        C484   1.488       .  S
C466        C977   1.417       .  A
C466        C467   1.400       .  A
C466        H471   1.083       .  S
C467        C980   1.392       .  A
C468        C979   1.392   1_455  A
C468        C469   1.388       .  A
C468        H472   1.072       .  S
C469        C470   1.398       .  A
C470        H473   1.083       .  S
C474        C475   1.414       .  A
C474        C991   1.415   1_455  A
C474        C487   1.480   1_455  S
C475        C476   1.399       .  A
C475        H480   1.083       .  S
C476        C477   1.389   1_455  A
C477        C990   1.393       .  A
C477        H481   1.072       .  S
C478        C989   1.393       .  A
C478        C479   1.400       .  A
C479        C986   1.415       .  A
C479        H482   1.083       .  S
C483        C996   1.408       .  A
C483        C488   1.398       .  A
C483        F490   1.358       .  S
C484        C995   1.408   1_455  A
C484        C485   1.411       .  A
C485        C486   1.398       .  A
C485        F492   1.358       .  S
C486        C487   1.404   1_455  A
C486        F491   1.358       .  S
C487       C1000   1.407       .  A
C488        C999   1.407       .  A
C488        F489   1.358       .  S
C493        C494   1.412       .  A
C493        C498   1.397       .  A
C493        F500   1.358       .  S
C494        C495   1.409       .  A
C495        C496   1.398       .  A
C495        F502   1.358       .  S
C496        C497   1.407       .  A
C496        F501   1.358       .  S
C497        C498   1.404       .  A
C498        F499   1.358       .  S
C503        C504   1.406       .  A
C503        C508   1.400       .  A
C503        F510   1.358       .  S
C505        C506   1.400       .  A
C505        F512   1.358       .  S
C506        F511   1.358       .  S
C507        C508   1.404       .  A
C508        F509   1.358       .  S
C513        C514   1.414       .  A
C513        C774   1.415       .  A
C513        C891   1.478       .  S
C514        C515   1.400       .  A
C514        H519   1.084       .  S
C515        C772   1.388       .  A
C515        C572   1.471       .  S
C516        C771   1.388   1_545  A
C516        C517   1.393       .  A
C516        H520   1.073       .  S
C517        C518   1.402       .  A
C517        C532   1.473       .  S
C518        C769   1.415   1_545  A
C518        H521   1.084       .  S
C522        C523   1.413   1_565  A
C522        C783   1.413       .  A
C522        C632   1.475   1_565  S
C523        C524   1.402       .  A
C523        H528   1.084       .  S
C524        C525   1.393   1_545  A
C524        C550   1.472       .  S
C525        C782   1.389       .  A
C525        H529   1.073       .  S
C526        C781   1.389       .  A
C526        C527   1.401       .  A
C526        C590   1.470       .  S
C527        C778   1.413       .  A
C527        H530   1.084       .  S
O531        C546   1.265       .  A
O531       Al667   1.930       .  S
C532        O542   1.265       .  A
C532        O533   1.257       .  A
O533       Al535   1.886       .  S
O534        C536   1.265       .  A
O534       Al535   1.932       .  S
Al535       O671   1.932   1_554  S
Al535       O673   1.886   1_554  S
Al535       O544   1.784       .  S
C536        C555   1.470       .  S
C536        O549   1.257       .  A
O537        C547   1.265       .  A
O537       Al539   1.930       .  S
O538        C551   1.265       .  A
O538       Al676   1.932       .  S
Al539       O659   1.930   1_554  S
Al539       O680   1.884   1_554  S
Al539       O549   1.885       .  S
Al539       O544   1.785       .  S
O540        C547   1.257       .  A
O540       Al548   1.887       .  S
O541        C550   1.257       .  A
O541       Al676   1.890       .  S
O542       Al548   1.935       .  S
O543        C550   1.265       .  A
O543       Al663   1.932       .  S
O544       Al548   1.785       .  S
O545        C546   1.257       .  A
O545       Al663   1.886       .  S
C546        C564   1.469       .  S
C547        C595   1.470       .  S
Al548       O666   1.932   1_554  S
Al548       O669   1.890   1_554  S
C551        C606   1.470       .  S
C551        O552   1.256       .  A
O552       Al667   1.884       .  S
C553        C554   1.415       .  A
C553        C558   1.414       .  A
C553        C625   1.481       .  S
C554        C555   1.400       .  A
C554        H559   1.083       .  S
C555        C556   1.394       .  A
C556        C557   1.389       .  A
C556        H560   1.072       .  S
C557        C558   1.398       .  A
C557        C576   1.468       .  S
C558        H561   1.083       .  S
C562        C563   1.417       .  A
C562        C567   1.416       .  A
C562        C622   1.489       .  S
C563        C564   1.399       .  A
C563        H568   1.082       .  S
C564        C565   1.392       .  A
C565        C566   1.388       .  A
C565        H569   1.073       .  S
C566        C567   1.398       .  A
C566        C586   1.467       .  S
C567        H570   1.083       .  S
O571        C586   1.261       .  A
O571       Al707   1.913       .  S
C572        O582   1.261       .  A
C572        O573   1.264       .  A
O573       Al575   1.914       .  S
O574        C576   1.261       .  A
O574       Al575   1.915       .  S
Al575       O711   1.916   1_554  S
Al575       O713   1.912   1_554  S
Al575       O584   1.780       .  S
C576        O589   1.263       .  A
O577        C587   1.261       .  A
O577       Al579   1.913       .  S
O578        C591   1.261       .  A
O578       Al716   1.915       .  S
Al579       O699   1.913   1_554  S
Al579       O720   1.911   1_554  S
Al579       O589   1.911       .  S
Al579       O584   1.780       .  S
O580        C587   1.263       .  A
O580       Al588   1.913       .  S
O581        C590   1.264       .  A
O581       Al716   1.916       .  S
O582       Al588   1.917       .  S
O583        C590   1.261       .  A
O583       Al703   1.916       .  S
O584       Al588   1.780       .  S
O585        C586   1.263       .  A
O585       Al703   1.912       .  S
C587        C597   1.467       .  S
Al588       O706   1.915   1_554  S
Al588       O709   1.916   1_554  S
C591        C604   1.468       .  S
C591        O592   1.263       .  A
O592       Al707   1.911       .  S
C593        C598   1.416       .  A
C593        C612   1.488       .  S
C594        C595   1.400       .  A
C594        H599   1.083       .  S
C596        C597   1.388       .  A
C596        H600   1.072       .  S
C597        C598   1.398       .  A
C598        H601   1.083       .  S
C602        C603   1.414       .  A
C602        C615   1.480       .  S
C603        C604   1.399       .  A
C603        H608   1.083       .  S
C604        C605   1.389       .  A
C605        H609   1.072       .  S
C606        C607   1.400       .  A
C607        H610   1.083       .  S
C611        C616   1.398       .  A
C611        F618   1.358       .  S
C612        C613   1.411       .  A
C613        C614   1.398       .  A
C613        F620   1.358       .  S
C614        C615   1.404       .  A
C614        F619   1.358       .  S
C616        F617   1.358       .  S
C621        C622   1.412       .  A
C621        C626   1.397       .  A
C621        F628   1.358       .  S
C622        C623   1.409       .  A
C623        C624   1.398       .  A
C623        F630   1.358       .  S
C624        C625   1.407       .  A
C624        F629   1.358       .  S
C625        C626   1.404       .  A
C626        F627   1.358       .  S
C631        C632   1.406       .  A
C631        C636   1.400       .  A
C631        F638   1.358       .  S
C632        C889   1.402   1_545  A
C633        C888   1.402       .  A
C633        C634   1.400       .  A
C633        F640   1.358       .  S
C634        C891   1.407       .  A
C634        F639   1.358       .  S
C635        C890   1.407       .  A
C635        C636   1.404   1_565  A
C635        C769   1.478       .  S
C636        F637   1.358       .  S
C641        C642   1.414       .  A
C641        C902   1.415       .  A
C641       C1019   1.478       .  S
C642        C643   1.400       .  A
C642        H647   1.084       .  S
C643        C900   1.388       .  A
C643        C700   1.471       .  S
C644        C899   1.388   1_545  A
C644        C645   1.393       .  A
C644        H648   1.073       .  S
C645        C646   1.402       .  A
C645        C660   1.473       .  S
C646        C897   1.415   1_545  A
C646        H649   1.084       .  S
C650        C651   1.413   1_565  A
C650        C911   1.413       .  A
C650        C760   1.475   1_565  S
C651        C652   1.402       .  A
C651        H656   1.084       .  S
C652        C653   1.393   1_545  A
C652        C678   1.472       .  S
C653        C910   1.389       .  A
C653        H657   1.073       .  S
C654        C909   1.389       .  A
C654        C655   1.401       .  A
C654        C718   1.470       .  S
C655        C906   1.413       .  A
C655        H658   1.084       .  S
O659        C674   1.265       .  A
C660        O670   1.265       .  A
C660        O661   1.257       .  A
O661       Al663   1.886       .  S
O662        C664   1.265       .  A
O662       Al663   1.932       .  S
Al663       O672   1.784       .  S
C664        C683   1.470       .  S
C664        O677   1.257       .  A
O665        C675   1.265       .  A
O665       Al667   1.930       .  S
O666        C679   1.265       .  A
Al667       O677   1.885       .  S
Al667       O672   1.785       .  S
O668        C675   1.257       .  A
O668       Al676   1.887       .  S
O669        C678   1.257       .  A
O670       Al676   1.935       .  S
O671        C678   1.265       .  A
O672       Al676   1.785       .  S
O673        C674   1.257       .  A
C674        C692   1.469       .  S
C675        C723   1.470       .  S
C679        C734   1.470       .  S
C679        O680   1.256       .  A
C681        C682   1.415       .  A
C681        C686   1.414       .  A
C681        C753   1.481       .  S
C682        C683   1.400       .  A
C682        H687   1.083       .  S
C683        C684   1.394       .  A
C684        C685   1.389       .  A
C684        H688   1.072       .  S
C685        C686   1.398       .  A
C685        C704   1.468       .  S
C686        H689   1.083       .  S
C690        C691   1.417       .  A
C690        C695   1.416       .  A
C690        C750   1.489       .  S
C691        C692   1.399       .  A
C691        H696   1.082       .  S
C692        C693   1.392       .  A
C693        C694   1.388       .  A
C693        H697   1.073       .  S
C694        C695   1.398       .  A
C694        C714   1.467       .  S
C695        H698   1.083       .  S
O699        C714   1.261       .  A
C700        O710   1.261       .  A
C700        O701   1.264       .  A
O701       Al703   1.914       .  S
O702        C704   1.261       .  A
O702       Al703   1.915       .  S
Al703       O712   1.780       .  S
C704        O717   1.263       .  A
O705        C715   1.261       .  A
O705       Al707   1.913       .  S
O706        C719   1.261       .  A
Al707       O717   1.911       .  S
Al707       O712   1.780       .  S
O708        C715   1.263       .  A
O708       Al716   1.913       .  S
O709        C718   1.264       .  A
O710       Al716   1.917       .  S
O711        C718   1.261       .  A
O712       Al716   1.780       .  S
O713        C714   1.263       .  A
C715        C725   1.467       .  S
C719        C732   1.468       .  S
C719        O720   1.263       .  A
C721        C726   1.416       .  A
C721        C740   1.488       .  S
C722        C723   1.400       .  A
C722        H727   1.083       .  S
C724        C725   1.388       .  A
C724        H728   1.072       .  S
C725        C726   1.398       .  A
C726        H729   1.083       .  S
C730        C731   1.414       .  A
C730        C743   1.480       .  S
C731        C732   1.399       .  A
C731        H736   1.083       .  S
C732        C733   1.389       .  A
C733        H737   1.072       .  S
C734        C735   1.400       .  A
C735        H738   1.083       .  S
C739        C744   1.398       .  A
C739        F746   1.358       .  S
C740        C741   1.411       .  A
C741        C742   1.398       .  A
C741        F748   1.358       .  S
C742        C743   1.404       .  A
C742        F747   1.358       .  S
C744        F745   1.358       .  S
C749        C750   1.412       .  A
C749        C754   1.397       .  A
C749        F756   1.358       .  S
C750        C751   1.409       .  A
C751        C752   1.398       .  A
C751        F758   1.358       .  S
C752        C753   1.407       .  A
C752        F757   1.358       .  S
C753        C754   1.404       .  A
C754        F755   1.358       .  S
C759        C760   1.406       .  A
C759        C764   1.400       .  A
C759        F766   1.358       .  S
C760       C1017   1.402   1_545  A
C761       C1016   1.402       .  A
C761        C762   1.400       .  A
C761        F768   1.358       .  S
C762       C1019   1.407       .  A
C762        F767   1.358       .  S
C763       C1018   1.407       .  A
C763        C764   1.404   1_565  A
C763        C897   1.478       .  S
C764        F765   1.358       .  S
C769        C770   1.414       .  A
C770        C771   1.400       .  A
C770        H775   1.084       .  S
C771        C828   1.471       .  S
C772        C773   1.393       .  A
C772        H776   1.073       .  S
C773        C774   1.402       .  A
C773        C788   1.473       .  S
C774        H777   1.084       .  S
C778        C779   1.413       .  A
C778        C888   1.475       .  S
C779        C780   1.402       .  A
C779        H784   1.084       .  S
C780        C781   1.393       .  A
C780        C806   1.472       .  S
C781        H785   1.073       .  S
C782        C783   1.401       .  A
C782        C846   1.470       .  S
C783        H786   1.084       .  S
O787        C802   1.265       .  A
O787       Al923   1.930       .  S
C788        O798   1.265       .  A
C788        O789   1.257       .  A
O789       Al791   1.886       .  S
O790        C792   1.265       .  A
O790       Al791   1.932       .  S
Al791       O927   1.932   1_554  S
Al791       O929   1.886   1_554  S
Al791       O800   1.784       .  S
C792        C811   1.470       .  S
C792        O805   1.257       .  A
O793        C803   1.265       .  A
O793       Al795   1.930       .  S
O794        C807   1.265       .  A
O794       Al932   1.932       .  S
Al795       O915   1.930   1_554  S
Al795       O936   1.884   1_554  S
Al795       O805   1.885       .  S
Al795       O800   1.785       .  S
O796        C803   1.257       .  A
O796       Al804   1.887       .  S
O797        C806   1.257       .  A
O797       Al932   1.890       .  S
O798       Al804   1.935       .  S
O799        C806   1.265       .  A
O799       Al919   1.932       .  S
O800       Al804   1.785       .  S
O801        C802   1.257       .  A
O801       Al919   1.886       .  S
C802        C820   1.469       .  S
C803        C851   1.470       .  S
Al804       O922   1.932   1_554  S
Al804       O925   1.890   1_554  S
C807        C862   1.470       .  S
C807        O808   1.256       .  A
O808       Al923   1.884       .  S
C809        C810   1.415       .  A
C809        C814   1.414       .  A
C809        C881   1.481       .  S
C810        C811   1.400       .  A
C810        H815   1.083       .  S
C811        C812   1.394       .  A
C812        C813   1.389       .  A
C812        H816   1.072       .  S
C813        C814   1.398       .  A
C813        C832   1.468       .  S
C814        H817   1.083       .  S
C818        C819   1.417       .  A
C818        C823   1.416       .  A
C818        C878   1.489       .  S
C819        C820   1.399       .  A
C819        H824   1.082       .  S
C820        C821   1.392       .  A
C821        C822   1.388       .  A
C821        H825   1.073       .  S
C822        C823   1.398       .  A
C822        C842   1.467       .  S
C823        H826   1.083       .  S
O827        C842   1.261       .  A
O827       Al963   1.913       .  S
C828        O838   1.261       .  A
C828        O829   1.264       .  A
O829       Al831   1.914       .  S
O830        C832   1.261       .  A
O830       Al831   1.915       .  S
Al831       O967   1.916   1_554  S
Al831       O969   1.912   1_554  S
Al831       O840   1.780       .  S
C832        O845   1.263       .  A
O833        C843   1.261       .  A
O833       Al835   1.913       .  S
O834        C847   1.261       .  A
O834       Al972   1.915       .  S
Al835       O955   1.913   1_554  S
Al835       O976   1.911   1_554  S
Al835       O845   1.911       .  S
Al835       O840   1.780       .  S
O836        C843   1.263       .  A
O836       Al844   1.913       .  S
O837        C846   1.264       .  A
O837       Al972   1.916       .  S
O838       Al844   1.917       .  S
O839        C846   1.261       .  A
O839       Al959   1.916       .  S
O840       Al844   1.780       .  S
O841        C842   1.263       .  A
O841       Al959   1.912       .  S
C843        C853   1.467       .  S
Al844       O962   1.915   1_554  S
Al844       O965   1.916   1_554  S
C847        C860   1.468       .  S
C847        O848   1.263       .  A
O848       Al963   1.911       .  S
C849        C854   1.416       .  A
C849        C868   1.488       .  S
C850        C851   1.400       .  A
C850        H855   1.083       .  S
C852        C853   1.388       .  A
C852        H856   1.072       .  S
C853        C854   1.398       .  A
C854        H857   1.083       .  S
C858        C859   1.414       .  A
C858        C871   1.480       .  S
C859        C860   1.399       .  A
C859        H864   1.083       .  S
C860        C861   1.389       .  A
C861        H865   1.072       .  S
C862        C863   1.400       .  A
C863        H866   1.083       .  S
C867        C872   1.398       .  A
C867        F874   1.358       .  S
C868        C869   1.411       .  A
C869        C870   1.398       .  A
C869        F876   1.358       .  S
C870        C871   1.404       .  A
C870        F875   1.358       .  S
C872        F873   1.358       .  S
C877        C878   1.412       .  A
C877        C882   1.397       .  A
C877        F884   1.358       .  S
C878        C879   1.409       .  A
C879        C880   1.398       .  A
C879        F886   1.358       .  S
C880        C881   1.407       .  A
C880        F885   1.358       .  S
C881        C882   1.404       .  A
C882        F883   1.358       .  S
C887        C888   1.406       .  A
C887        C892   1.400       .  A
C887        F894   1.358       .  S
C889        C890   1.400       .  A
C889        F896   1.358       .  S
C890        F895   1.358       .  S
C891        C892   1.404       .  A
C892        F893   1.358       .  S
C897        C898   1.414       .  A
C898        C899   1.400       .  A
C898        H903   1.084       .  S
C899        C956   1.471       .  S
C900        C901   1.393       .  A
C900        H904   1.073       .  S
C901        C902   1.402       .  A
C901        C916   1.473       .  S
C902        H905   1.084       .  S
C906        C907   1.413       .  A
C906       C1016   1.475       .  S
C907        C908   1.402       .  A
C907        H912   1.084       .  S
C908        C909   1.393       .  A
C908        C934   1.472       .  S
C909        H913   1.073       .  S
C910        C911   1.401       .  A
C910        C974   1.470       .  S
C911        H914   1.084       .  S
O915        C930   1.265       .  A
C916        O926   1.265       .  A
C916        O917   1.257       .  A
O917       Al919   1.886       .  S
O918        C920   1.265       .  A
O918       Al919   1.932       .  S
Al919       O928   1.784       .  S
C920        C939   1.470       .  S
C920        O933   1.257       .  A
O921        C931   1.265       .  A
O921       Al923   1.930       .  S
O922        C935   1.265       .  A
Al923       O933   1.885       .  S
Al923       O928   1.785       .  S
O924        C931   1.257       .  A
O924       Al932   1.887       .  S
O925        C934   1.257       .  A
O926       Al932   1.935       .  S
O927        C934   1.265       .  A
O928       Al932   1.785       .  S
O929        C930   1.257       .  A
C930        C948   1.469       .  S
C931        C979   1.470       .  S
C935        C990   1.470       .  S
C935        O936   1.256       .  A
C937        C938   1.415       .  A
C937        C942   1.414       .  A
C937       C1009   1.481       .  S
C938        C939   1.400       .  A
C938        H943   1.083       .  S
C939        C940   1.394       .  A
C940        C941   1.389       .  A
C940        H944   1.072       .  S
C941        C942   1.398       .  A
C941        C960   1.468       .  S
C942        H945   1.083       .  S
C946        C947   1.417       .  A
C946        C951   1.416       .  A
C946       C1006   1.489       .  S
C947        C948   1.399       .  A
C947        H952   1.082       .  S
C948        C949   1.392       .  A
C949        C950   1.388       .  A
C949        H953   1.073       .  S
C950        C951   1.398       .  A
C950        C970   1.467       .  S
C951        H954   1.083       .  S
O955        C970   1.261       .  A
C956        O966   1.261       .  A
C956        O957   1.264       .  A
O957       Al959   1.914       .  S
O958        C960   1.261       .  A
O958       Al959   1.915       .  S
Al959       O968   1.780       .  S
C960        O973   1.263       .  A
O961        C971   1.261       .  A
O961       Al963   1.913       .  S
O962        C975   1.261       .  A
Al963       O973   1.911       .  S
Al963       O968   1.780       .  S
O964        C971   1.263       .  A
O964       Al972   1.913       .  S
O965        C974   1.264       .  A
O966       Al972   1.917       .  S
O967        C974   1.261       .  A
O968       Al972   1.780       .  S
O969        C970   1.263       .  A
C971        C981   1.467       .  S
C975        C988   1.468       .  S
C975        O976   1.263       .  A
C977        C982   1.416       .  A
C977        C996   1.488       .  S
C978        C979   1.400       .  A
C978        H983   1.083       .  S
C980        C981   1.388       .  A
C980        H984   1.072       .  S
C981        C982   1.398       .  A
C982        H985   1.083       .  S
C986        C987   1.414       .  A
C986        C999   1.480       .  S
C987        C988   1.399       .  A
C987        H992   1.083       .  S
C988        C989   1.389       .  A
C989        H993   1.072       .  S
C990        C991   1.400       .  A
C991        H994   1.083       .  S
C995       C1000   1.398       .  A
C995       F1002   1.358       .  S
C996        C997   1.411       .  A
C997        C998   1.398       .  A
C997       F1004   1.358       .  S
C998        C999   1.404       .  A
C998       F1003   1.358       .  S
C1000      F1001   1.358       .  S
C1005      C1006   1.412       .  A
C1005      C1010   1.397       .  A
C1005      F1012   1.358       .  S
C1006      C1007   1.409       .  A
C1007      C1008   1.398       .  A
C1007      F1014   1.358       .  S
C1008      C1009   1.407       .  A
C1008      F1013   1.358       .  S
C1009      C1010   1.404       .  A
C1010      F1011   1.358       .  S
C1015      C1016   1.406       .  A
C1015      C1020   1.400       .  A
C1015      F1022   1.358       .  S
C1017      C1018   1.400       .  A
C1017      F1024   1.358       .  S
C1018      F1023   1.358       .  S
C1019      C1020   1.404       .  A
C1020      F1021   1.358       .  S
