geometry optimzed in LAMMPS
_audit_creation_date              2020-12-01 
_audit_creation_method            'lammps2cif' 
_symmetry_space_group_name_H-M    'P1' 
_symmetry_Int_Tables_number       1 
_symmetry_cell_setting            triclinic 
loop_ 
_symmetry_equiv_pos_as_xyz 
  x,y,z 
_cell_length_a                    48.35854677 
_cell_length_b                    48.22932540081375 
_cell_length_c                    31.173670574273824 
_cell_angle_alpha                 89.82424330415013 
_cell_angle_beta                  89.83964434985324 
_cell_angle_gamma                 122.11777026990595 
loop_ 
_atom_site_label 
_atom_site_type_symbol 
_atom_site_fract_x 
_atom_site_fract_y 
_atom_site_fract_z 
_atom_site_charge 
Zn1        Zn  0.33843989  0.16483841  0.68216457     1.49700
Zn2        Zn  0.30278800  0.11831046  0.75924523     1.49400
Zn3        Zn  0.37877501  0.17177098  0.76344858     1.49100
Zn4        Zn  0.32690020  0.19493307  0.76409740     1.49500
O5          O  0.33670736  0.16268654  0.74330192    -1.83900
O6          O  0.29707232  0.12989482  0.65689170    -0.74500
O7          O  0.32178936  0.09456640  0.78959780    -0.74400
O8          O  0.40588148  0.16899845  0.71496366    -0.73900
O9          O  0.27293650  0.09319854  0.70906744    -0.74600
O10         O  0.37394499  0.16038962  0.65916021    -0.74200
O11         O  0.37189261  0.13629232  0.80399002    -0.74700
O12         O  0.36323699  0.22619814  0.80332345    -0.74100
O13         O  0.27284445  0.12095523  0.80023883    -0.74900
O14         O  0.40234432  0.21534883  0.79483548    -0.74300
O15         O  0.28353007  0.17187203  0.79774583    -0.74800
O16         O  0.32819406  0.22434514  0.71500736    -0.74700
O17         O  0.34447159  0.20618082  0.66121778    -0.74400
C18         C  0.27342350  0.10275073  0.67072875     0.77300
C19         C  0.34931690  0.10626253  0.80820082     0.77800
C20         C  0.39920499  0.16277973  0.67526438     0.76800
C21         C  0.39216328  0.23292231  0.81023882     0.77200
C22         C  0.26617502  0.14220402  0.81094402     0.78300
C23         C  0.33785716  0.22643508  0.67626776     0.77400
C24         C  0.47510252  0.50230842  0.99743217     0.03300
C25         C  0.47597062  0.47369423  0.99397369    -0.12800
C26         C  0.50599732  0.47555042  0.99121561     0.00800
C27         C  0.03522085  0.50645502  0.99177475    -0.11300
C28         C  0.03485434  0.03525900  0.99585885     0.03300
C29         C  0.00473221  0.03298092  0.99879797    -0.10800
H30         H  0.45329878  0.45004204  0.99331146     0.08900
H31         H  0.05852689  0.00823290  0.98950232     0.06500
H32         H  0.00428879  0.05513781  0.00162801     0.09300
C33         C  0.40920259  0.01892956  0.96787086     0.03300
C34         C  0.43881443  0.02012415  0.96872299    -0.12800
C35         C  0.44356062  0.00067343  0.99774345     0.00800
C36         C  0.41821315  0.48006982  0.02662321    -0.11300
C37         C  0.38874565  0.47952712  0.02711410     0.03300
C38         C  0.38451038  0.99876841  0.99723190    -0.10800
H39         H  0.45795313  0.03563541  0.94599665     0.08900
H40         H  0.42189454  0.46538734  0.04950576     0.06500
H41         H  0.36176767  0.99811932  0.99680916     0.06300
C42         C  0.10259247  0.11911240  0.03363110     0.03300
C43         C  0.07244741  0.08923609  0.03135033    -0.12800
C44         C  0.06595215  0.06761492  0.99713936     0.00800
C45         C  0.08958544  0.07672362  0.96458936    -0.11300
C46         C  0.11915378  0.10729232  0.96577846     0.03300
C47         C  0.12546977  0.12799323  0.00060600    -0.10800
H48         H  0.05459733  0.08236642  0.05679099     0.08900
H49         H  0.08467930  0.06033320  0.93799355     0.06500
H50         H  0.14856099  0.15124508  0.00220565     0.06300
C51         C  0.02921204  0.41329863  0.01560000     0.03300
C52         C  0.00912590  0.38822106  0.98698356    -0.12800
C53         C  0.48777254  0.39104434  0.95957776     0.00800
C54         C  0.48658907  0.41959078  0.96116070    -0.11300
C55         C  0.00714249  0.44535894  0.98906076     0.03300
C56         C  0.02859709  0.44204722  0.01587007    -0.10800
H57         H  0.00955353  0.36598084  0.98686440     0.08900
H58         H  0.47015273  0.42200608  0.94018610     0.06500
H59         H  0.04374009  0.46124440  0.03844149     0.06300
Zn60       Zn  0.19261111  0.32527916  0.23174714     1.49700
Zn61       Zn  0.17444735  0.38021559  0.23347651     1.49400
Zn62       Zn  0.11759601  0.30544022  0.23774990     1.49100
Zn63       Zn  0.16378180  0.33672251  0.31261676     1.49500
O64         O  0.16239101  0.33704548  0.25207713    -1.83900
O65         O  0.22441735  0.36030300  0.19030718    -0.74500
O66         O  0.14046509  0.37640902  0.19239083    -0.74400
O67         O  0.11774809  0.27379667  0.19729223    -0.73900
O68         O  0.21808674  0.40220300  0.20181404    -0.74600
O69         O  0.16726805  0.28121366  0.20092495    -0.74200
O70         O  0.09700826  0.32700927  0.20656032    -0.74700
O71         O  0.13227985  0.29112781  0.33396067    -0.74100
O72         O  0.17213177  0.40591892  0.28378837    -0.74900
O73         O  0.09139342  0.27634167  0.28865186    -0.74300
O74         O  0.15114657  0.36737992  0.33466542    -0.74800
O75         O  0.20885996  0.35059985  0.33166652    -0.74700
O76         O  0.22179862  0.32711131  0.28075784    -0.74400
C77         C  0.23341532  0.39017678  0.18437612     0.77300
C78         C  0.11028417  0.35473473  0.18749757     0.77800
C79         C  0.13774408  0.26523551  0.18764371     0.76800
C80         C  0.10313825  0.27091193  0.32197594     0.77200
C81         C  0.15806753  0.39508486  0.32013400     0.78300
C82         C  0.22776105  0.34210368  0.31654525     0.77400
C83         C  0.02554914  0.99371967  0.51032124     0.03300
C84         C  0.49368179  0.46594838  0.50930542    -0.12800
C85         C  0.46642802  0.46915266  0.50765301     0.00800
C86         C  0.47134024  0.50058661  0.50697931    -0.11300
C87         C  0.00303059  0.02863250  0.50802603     0.03300
C88         C  0.03001885  0.02504446  0.50962798    -0.10800
H89         H  0.49007413  0.44176200  0.50980577     0.08900
H90         H  0.45045145  0.50323467  0.50596138     0.06500
H91         H  0.05448334  0.04663687  0.51035070     0.06300
C92         C  0.08575560  0.46928432  0.47938070     0.03300
C93         C  0.05757874  0.47085282  0.48040912    -0.12800
C94         C  0.05419218  0.49009188  0.51146350     0.00800
C95         C  0.07882576  0.00667230  0.54242002    -0.11300
C96         C  0.10666423  0.00446545  0.54191999     0.03300
C97         C  0.10977186  0.48579007  0.51044766    -0.10800
H98         H  0.03905191  0.45830814  0.45607846     0.08900
H99         H  0.07654894  0.02155613  0.56642216     0.06500
H100        H  0.13119954  0.48398886  0.51009116     0.06300
C101        C  0.49559532  0.10022365  0.54030869     0.03300
C102        C  0.51362383  0.12259130  0.50750970    -0.12800
C103        C  0.02789151  0.11482236  0.47443010     0.00800
C104        C  0.02562810  0.08450283  0.47544164    -0.11300
C105        C  0.50765787  0.06160452  0.50831743     0.03300
C106        C  0.49266239  0.06964813  0.54061450    -0.10800
H107        H  0.51660016  0.14651636  0.50762094     0.08900
H108        H  0.03664368  0.07824648  0.45000125     0.06500
H109        H  0.47832966  0.05192193  0.56546851     0.06300
C110        C  0.39205136  0.38672692  0.53842070     0.03300
C111        C  0.37030888  0.38250611  0.50575848    -0.12800
C112        C  0.37905445  0.40668125  0.47438888     0.00800
C113        C  0.41025849  0.43550738  0.47565719    -0.11300
C114        C  0.43284521  0.43962151  0.50741567     0.03300
C115        C  0.42337173  0.41521522  0.53896054    -0.10800
H116        H  0.34605378  0.36056965  0.50538365     0.08900
H117        H  0.41722148  0.45424703  0.45137055     0.06500
H118        H  0.44045669  0.41827952  0.56372503     0.06300
C119        C  0.08336434  0.24008846  0.34639199    -0.05000
C120        C  0.04986625  0.22644447  0.35333856    -0.05000
C121        C  0.03171405  0.19771570  0.37762063    -0.23100
C122        C  0.04670877  0.18188621  0.39451980     0.19100
C123        C  0.08009387  0.19467418  0.38611536     0.16300
C124        C  0.09826234  0.22386765  0.36248736    -0.18200
C125        C  0.09489051  0.17844311  0.40233861    -0.20000
C126        C  0.07724176  0.15083011  0.42877817    -0.12600
C127        C  0.04462650  0.13915548  0.43941777     0.04100
C128        C  0.02919256  0.15415120  0.42089271    -0.24700
H129        H  0.03795129  0.23846519  0.34089726     0.09200
H130        H  0.00608476  0.18810525  0.38361633     0.12800
H131        H  0.12400327  0.23397220  0.35649629     0.12700
H132        H  0.12038436  0.18774845  0.39577189     0.12500
H133        H  0.08956308  0.13972275  0.44283043     0.13000
H134        H  0.00387779  0.14502531  0.42863900     0.15000
C135        C  0.09153721  0.45138861  0.44575208    -0.05000
C136        C  0.07001144  0.41758340  0.44060985    -0.05000
C137        C  0.07854805  0.39988249  0.41410492    -0.23100
C138        C  0.10862953  0.41586157  0.39222855     0.19100
C139        C  0.12968533  0.45016613  0.39562614     0.16300
C140        C  0.12102061  0.46764899  0.42242831    -0.18200
C141        C  0.15941595  0.46628358  0.37300461    -0.20000
C142        C  0.16850676  0.44847557  0.34773207    -0.12600
C143        C  0.14835831  0.41428144  0.34556615     0.04100
C144        C  0.11829930  0.39811521  0.36761504    -0.24700
H145        H  0.04735824  0.40469820  0.45865281     0.09200
H146        H  0.06202061  0.37361987  0.41155135     0.12800
H147        H  0.13765417  0.49381803  0.42630186     0.12700
H148        H  0.17572588  0.49260387  0.37512477     0.12500
H149        H  0.19162421  0.46129469  0.33071289     0.13000
H150        H  0.10237752  0.37173017  0.36536934     0.15000
C151        C  0.25736096  0.35044474  0.34100518    -0.05000
C152        C  0.26900829  0.32928691  0.34174527    -0.05000
C153        C  0.29603405  0.33661931  0.36686084    -0.23100
C154        C  0.31228475  0.36561904  0.39084193     0.19100
C155        C  0.30160281  0.38775418  0.38873649     0.16300
C156        C  0.27398711  0.37981572  0.36433126    -0.18200
C157        C  0.31841673  0.41722227  0.41163091    -0.20000
C158        C  0.34486143  0.42419079  0.43765367    -0.12600
C159        C  0.35463562  0.40164457  0.44166518     0.04100
C160        C  0.33856017  0.37257840  0.41759215    -0.24700
H161        H  0.25662695  0.30663284  0.32385712     0.09200
H162        H  0.30404580  0.31949022  0.36782443     0.12800
H163        H  0.26545441  0.39654142  0.36335353     0.12700
H164        H  0.31070867  0.43457919  0.41008219     0.12500
H165        H  0.35678911  0.44654909  0.45618309     0.13000
H166        H  0.34611992  0.35513925  0.42046299     0.15000
C167        C  0.09045831  0.36179680  0.15848280    -0.05000
C168        C  0.05704818  0.33849163  0.15286323    -0.05000
C169        C  0.03854004  0.34429839  0.12417827    -0.23100
C170        C  0.05304310  0.37351486  0.10049751     0.19100
C171        C  0.08644890  0.39747693  0.10628460     0.16300
C172        C  0.10493534  0.39148700  0.13525038    -0.18200
C173        C  0.10075963  0.42684782  0.08271942    -0.20000
C174        C  0.08216819  0.43226079  0.05346308    -0.12600
C175        C  0.04908575  0.40826346  0.04705627     0.04100
C176        C  0.03467865  0.37902827  0.07093765    -0.24700
H177        H  0.04520386  0.31552649  0.17035405     0.09200
H178        H  0.01289053  0.32576260  0.12023602     0.12800
H179        H  0.13065676  0.40978639  0.13925054     0.12700
H180        H  0.12634454  0.44554780  0.08676417     0.12500
H181        H  0.09371310  0.45493084  0.03531233     0.13000
H182        H  0.00900884  0.36060829  0.06665922     0.15000
C183        C  0.11083642  0.14203113  0.06960083    -0.05000
C184        C  0.14091124  0.15503150  0.09063956    -0.05000
C185        C  0.15168656  0.18084561  0.11945603    -0.23100
C186        C  0.13271485  0.19435740  0.12727847     0.19100
C187        C  0.10185985  0.18058276  0.10740184     0.16300
C188        C  0.09092885  0.15422998  0.07908952    -0.18200
C189        C  0.08298451  0.19418605  0.11489706    -0.20000
C190        C  0.09476443  0.22153825  0.14112199    -0.12600
C191        C  0.12568832  0.23590587  0.16045666     0.04100
C192        C  0.14442388  0.22189475  0.15371610    -0.24700
H193        H  0.15653497  0.14580133  0.08366414     0.09200
H194        H  0.17528116  0.19089544  0.13453320     0.12800
H195        H  0.06789437  0.14450422  0.06253953     0.12700
H196        H  0.05931651  0.18399013  0.09996322     0.12500
H197        H  0.07967638  0.23168542  0.14581469     0.13000
H198        H  0.16815451  0.23253486  0.16864274     0.15000
C199        C  0.26247362  0.41132014  0.15684349    -0.05000
C200        C  0.27310520  0.44435780  0.14978129    -0.05000
C201        C  0.30047221  0.46440443  0.12411795    -0.23100
C202        C  0.31781855  0.45186517  0.10490564     0.19100
C203        C  0.30761769  0.41880284  0.11185387     0.16300
C204        C  0.28002836  0.39874745  0.13767953    -0.18200
C205        C  0.32512663  0.40637482  0.09265660    -0.20000
C206        C  0.35211658  0.42634040  0.06621219    -0.12600
C207        C  0.36203654  0.45906803  0.05832252     0.04100
C208        C  0.34494538  0.47174674  0.07843235    -0.24700
H209        H  0.26023610  0.45478960  0.16409647     0.09200
H210        H  0.30799407  0.48973570  0.11914845     0.12800
H211        H  0.27226787  0.37335826  0.14278945     0.12700
H212        H  0.31768648  0.38107025  0.09763945     0.12500
H213        H  0.36464041  0.41591238  0.05086832     0.13000
H214        H  0.35261499  0.49710024  0.07313655     0.15000
C215        C  0.41986318  0.15682281  0.64662450    -0.05000
C216        C  0.41970282  0.16252166  0.60242401    -0.05000
C217        C  0.43451675  0.15248514  0.57341676    -0.23100
C218        C  0.44960692  0.13629150  0.58797536     0.19100
C219        C  0.45081737  0.13104513  0.63238413     0.16300
C220        C  0.43615701  0.14169722  0.66166439    -0.18200
C221        C  0.46593037  0.11452426  0.64633494    -0.20000
C222        C  0.47985281  0.10359648  0.61654590    -0.12600
C223        C  0.47889475  0.10909428  0.57242720     0.04100
C224        C  0.46328011  0.12509155  0.55854697    -0.24700
H225        H  0.40732901  0.17411417  0.59011540     0.09200
H226        H  0.43357357  0.15680536  0.53945683     0.12800
H227        H  0.43601098  0.13680182  0.69566068     0.12700
H228        H  0.46708414  0.11017195  0.68021601     0.12500
H229        H  0.49199145  0.09154475  0.62798746     0.13000
H230        H  0.46179241  0.12889726  0.52452677     0.15000
C231        C  0.40395612  0.03907847  0.93692158    -0.05000
C232        C  0.42758272  0.07254025  0.93185372    -0.05000
C233        C  0.42167741  0.09213793  0.90514215    -0.23100
C234        C  0.39209709  0.07855953  0.88289538     0.19100
C235        C  0.36852014  0.04475480  0.88683031     0.16300
C236        C  0.37461335  0.02523478  0.91378712    -0.18200
C237        C  0.33906240  0.03120828  0.86427911    -0.20000
C238        C  0.33272461  0.05108910  0.83868832    -0.12600
C239        C  0.35578448  0.08486899  0.83508748     0.04100
C240        C  0.38559044  0.09831486  0.85715911    -0.24700
H241        H  0.45023844  0.08371406  0.94955869     0.09200
H242        H  0.44006099  0.11802404  0.90237139     0.12800
H243        H  0.35642379  0.99931769  0.91712904     0.12700
H244        H  0.32079023  0.00527274  0.86672734     0.12500
H245        H  0.30973429  0.04001788  0.82179777     0.13000
H246        H  0.40376048  0.12428574  0.85462867     0.15000
C247        C  0.46597071  0.36332576  0.93091686    -0.05000
C248        C  0.43258297  0.35194890  0.92829570    -0.05000
C249        C  0.41152032  0.32418345  0.90415859    -0.23100
C250        C  0.42347901  0.30732843  0.88209003     0.19100
C251        C  0.45708237  0.31880227  0.88399144     0.16300
C252        C  0.47808173  0.34673014  0.90821636    -0.18200
C253        C  0.46904407  0.30193631  0.86200827    -0.20000
C254        C  0.44791438  0.27386240  0.83846270    -0.12600
C255        C  0.41441805  0.26217932  0.83624996     0.04100
C256        C  0.40241024  0.27916969  0.85826366    -0.24700
H257        H  0.42260304  0.36400616  0.94593790     0.09200
H258        H  0.38579002  0.31567677  0.90314660     0.12800
H259        H  0.50386326  0.35544258  0.90971222     0.12700
H260        H  0.49477109  0.31043059  0.86307881     0.12500
H261        H  0.45788521  0.26145741  0.82165455     0.13000
H262        H  0.37663554  0.27049127  0.85696002     0.15000
C263        C  0.13366447  0.02219939  0.57277683    -0.05000
C264        C  0.12822979  0.01729263  0.61716414    -0.05000
C265        C  0.15466761  0.03081892  0.64554230    -0.23100
C266        C  0.18684300  0.04957346  0.62984221     0.19100
C267        C  0.19227970  0.05505372  0.58518079     0.16300
C268        C  0.16576401  0.04142913  0.55712137    -0.18200
C269        C  0.22416310  0.07404019  0.56914118    -0.20000
C270        C  0.25053623  0.08823762  0.59714119    -0.12600
C271        C  0.24560292  0.08339164  0.64168039     0.04100
C272        C  0.21364839  0.06346794  0.65788069    -0.24700
H273        H  0.10365306  0.50222092  0.62975803     0.09200
H274        H  0.14997921  0.02638878  0.67965596     0.12800
H275        H  0.17004788  0.04530621  0.52282980     0.12700
H276        H  0.22868270  0.07840787  0.53498087     0.12500
H277        H  0.27490070  0.10362206  0.58394325     0.13000
H278        H  0.20957829  0.06005835  0.69222035     0.15000
C279        C  0.38198897  0.36056412  0.57086698    -0.05000
C280        C  0.38492606  0.36738602  0.61499175    -0.05000
C281        C  0.37459881  0.34211184  0.64522519    -0.23100
C282        C  0.36168638  0.30974731  0.63168325     0.19100
C283        C  0.35871258  0.30293864  0.58721566     0.16300
C284        C  0.36860537  0.32822659  0.55730250    -0.18200
C285        C  0.34654086  0.27102046  0.57313299    -0.20000
C286        C  0.33847233  0.24615093  0.60267043    -0.12600
C287        C  0.34197323  0.25250081  0.64696037     0.04100
C288        C  0.35276608  0.28425818  0.66150287    -0.24700
H289        H  0.39487423  0.39220588  0.62599252     0.09200
H290        H  0.37708976  0.34792140  0.67907961     0.12800
H291        H  0.36650442  0.32288263  0.52327300     0.12700
H292        H  0.34407370  0.26543089  0.53919497     0.12500
H293        H  0.33008620  0.22185950  0.59072231     0.13000
H294        H  0.35587658  0.28943491  0.69556081     0.15000
C295        C  0.23725198  0.13116154  0.83899237    -0.05000
C296        C  0.22019360  0.09882394  0.85500419    -0.05000
C297        C  0.19280283  0.08736612  0.88116943    -0.23100
C298        C  0.18175109  0.10793621  0.89206887     0.19100
C299        C  0.19838715  0.14044343  0.87610073     0.16300
C300        C  0.22604171  0.15188346  0.84957400    -0.18200
C301        C  0.18728303  0.16099451  0.88750627    -0.20000
C302        C  0.16067467  0.14974602  0.91540195    -0.12600
C303        C  0.14450197  0.11767227  0.93208767     0.04100
C304        C  0.15479917  0.09668946  0.91956000    -0.24700
H305        H  0.22806878  0.08216169  0.84745690     0.09200
H306        H  0.18040462  0.06242612  0.89315947     0.12800
H307        H  0.23879677  0.17678380  0.83738489     0.12700
H308        H  0.19953950  0.18592756  0.87555025     0.12500
H309        H  0.15298372  0.16629400  0.92455927     0.13000
H310        H  0.14274872  0.07209009  0.93274233     0.15000
Zn311      Zn  0.33845960  0.66490593  0.68218604     1.49700
Zn312      Zn  0.30281859  0.61836108  0.75924898     1.49400
Zn313      Zn  0.37879638  0.67182335  0.76346785     1.49100
Zn314      Zn  0.32691604  0.69497713  0.76414577     1.49500
O315        O  0.33672953  0.66274199  0.74332285    -1.83900
O316        O  0.29709153  0.62995705  0.65690433    -0.74500
O317        O  0.32182260  0.59462649  0.78960014    -0.74400
O318        O  0.40589250  0.66903344  0.71498062    -0.73900
O319        O  0.27297536  0.59324918  0.70907175    -0.74600
O320        O  0.37397384  0.66047091  0.65917294    -0.74200
O321        O  0.37191309  0.63635737  0.80404006    -0.74700
O322        O  0.36326266  0.72624869  0.80335897    -0.74100
O323        O  0.27285605  0.62097590  0.80023046    -0.74900
O324        O  0.40237804  0.71541627  0.79481515    -0.74300
O325        O  0.28354041  0.67189297  0.79778438    -0.74800
O326        O  0.32819188  0.72439304  0.71507505    -0.74700
O327        O  0.34447706  0.70625055  0.66126783    -0.74400
C328        C  0.27345173  0.60280590  0.67073960     0.77300
C329        C  0.34933998  0.60632423  0.80822969     0.77800
C330        C  0.39922457  0.66283863  0.67527539     0.76800
C331        C  0.39219891  0.73298708  0.81023337     0.77200
C332        C  0.26617835  0.64221579  0.81094707     0.78300
C333        C  0.33785315  0.72649443  0.67633264     0.77400
C334        C  0.47517011  0.00236343  0.99747103     0.03300
C335        C  0.47604188  0.97375307  0.99397832    -0.12800
C336        C  0.50607036  0.97561358  0.99121542     0.00800
C337        C  0.03529487  0.00652104  0.99180845    -0.11300
C338        C  0.03478312  0.53519714  0.99579184     0.03300
C339        C  0.00466393  0.53292303  0.99872787    -0.10800
H340        H  0.45337143  0.95010039  0.99329605     0.08900
H341        H  0.05845158  0.50816436  0.98946927     0.06500
H342        H  0.00422350  0.55508287  0.00153358     0.09300
C343        C  0.40915568  0.51890442  0.96784147     0.03300
C344        C  0.43875939  0.52008419  0.96868366    -0.12800
C345        C  0.44349732  0.50062506  0.99769940     0.00800
C346        C  0.41827608  0.98011054  0.02666454    -0.11300
C347        C  0.38879965  0.97955256  0.02714980     0.03300
C348        C  0.38446150  0.49874825  0.99720116    -0.10800
H349        H  0.45789924  0.53559531  0.94595843     0.08900
H350        H  0.42196338  0.96543188  0.04954657     0.06500
H351        H  0.36172469  0.49811154  0.99678650     0.06300
C352        C  0.10251716  0.61908735  0.03345892     0.03300
C353        C  0.07237730  0.58920345  0.03121591    -0.12800
C354        C  0.06587834  0.56755628  0.99703535     0.00800
C355        C  0.08949968  0.57664842  0.96447285    -0.11300
C356        C  0.11906044  0.60722548  0.96562165     0.03300
C357        C  0.12538255  0.62794937  0.00042452    -0.10800
H358        H  0.05453588  0.58234736  0.05666497     0.08900
H359        H  0.08458860  0.56023996  0.93789790     0.06500
H360        H  0.14847150  0.65120519  0.00200007     0.06300
C361        C  0.02928814  0.91336113  0.01556234     0.03300
C362        C  0.00921481  0.88829752  0.98692115    -0.12800
C363        C  0.48786236  0.89112559  0.95952225     0.00800
C364        C  0.48667606  0.91966950  0.96112050    -0.11300
C365        C  0.00722441  0.94543038  0.98903989     0.03300
C366        C  0.02867042  0.94210790  0.01585177    -0.10800
H367        H  0.00964313  0.86605775  0.98678419     0.08900
H368        H  0.47024083  0.92208906  0.94014891     0.06500
H369        H  0.04380173  0.96129374  0.03844279     0.06300
Zn370      Zn  0.19258729  0.82521672  0.23172403     1.49700
Zn371      Zn  0.17443937  0.88016800  0.23343942     1.49400
Zn372      Zn  0.11756604  0.80539690  0.23767635     1.49100
Zn373      Zn  0.16371542  0.83665101  0.31255911     1.49500
O374        O  0.16236242  0.83698915  0.25202069    -1.83900
O375        O  0.22442610  0.86024926  0.19029865    -0.74500
O376        O  0.14045465  0.87638857  0.19238372    -0.74400
O377        O  0.11772370  0.77376317  0.19721047    -0.73900
O378        O  0.21806745  0.90213725  0.20174967    -0.74600
O379        O  0.16723508  0.78115871  0.20086452    -0.74200
O380        O  0.09699461  0.82697942  0.20649694    -0.74700
O381        O  0.13220420  0.79105789  0.33387769    -0.74100
O382        O  0.17215656  0.90587668  0.28376738    -0.74900
O383        O  0.09133239  0.77629349  0.28855414    -0.74300
O384        O  0.15106624  0.86729712  0.33458920    -0.74800
O385        O  0.20877928  0.85052579  0.33166510    -0.74700
O386        O  0.22173656  0.82702797  0.28078983    -0.74400
C387        C  0.23340981  0.89011678  0.18433658     0.77300
C388        C  0.11027555  0.85471723  0.18746845     0.77800
C389        C  0.13771568  0.76519722  0.18756021     0.76800
C390        C  0.10306426  0.77085192  0.32188038     0.77200
C391        C  0.15804408  0.89502606  0.32008277     0.78300
C392        C  0.22768110  0.84201970  0.31657748     0.77400
C393        C  0.02555761  0.49375229  0.51037856     0.03300
C394        C  0.49366492  0.96591883  0.50925008    -0.12800
C395        C  0.46641638  0.96913398  0.50759800     0.00800
C396        C  0.47134098  0.00057267  0.50692441    -0.11300
C397        C  0.00302405  0.52865297  0.50807808     0.03300
C398        C  0.03001878  0.52507401  0.50968186    -0.10800
H399        H  0.49004931  0.94172919  0.50975370     0.08900
H400        H  0.45045734  0.00322926  0.50591293     0.06500
H401        H  0.05448079  0.54667042  0.51039793     0.06300
C402        C  0.08576747  0.96928914  0.47927574     0.03300
C403        C  0.05758353  0.97084589  0.48031996    -0.12800
C404        C  0.05418370  0.99005870  0.51140168     0.00800
C405        C  0.07883937  0.50671820  0.54247095    -0.11300
C406        C  0.10667074  0.50449935  0.54198647     0.03300
C407        C  0.10977756  0.98578138  0.51035533    -0.10800
H408        H  0.03906079  0.95831289  0.45598160     0.08900
H409        H  0.07657144  0.52161958  0.56645371     0.06500
H410        H  0.13120826  0.98398544  0.50999414     0.06300
C411        C  0.49558587  0.60025824  0.54028519     0.03300
C412        C  0.51358505  0.62259727  0.50744680    -0.12800
C413        C  0.02783780  0.61480524  0.47437029     0.00800
C414        C  0.02558470  0.58449188  0.47542161    -0.11300
C415        C  0.50764216  0.56162068  0.50833426     0.03300
C416        C  0.49266213  0.56968582  0.54062905    -0.10800
H417        H  0.51655616  0.64652015  0.50752703     0.08900
H418        H  0.03658909  0.57821857  0.44998529     0.06500
H419        H  0.47835026  0.55197940  0.56551198     0.06300
C420        C  0.39200046  0.88676820  0.53848096     0.03300
C421        C  0.37025171  0.88254297  0.50582639    -0.12800
C422        C  0.37900958  0.90668600  0.47440534     0.00800
C423        C  0.41023285  0.93549279  0.47562671    -0.11300
C424        C  0.43282360  0.93961398  0.50738693     0.03300
C425        C  0.42333795  0.91523419  0.53897478    -0.10800
H426        H  0.34598563  0.86062121  0.50548848     0.08900
H427        H  0.41720713  0.95421088  0.45130475     0.06500
H428        H  0.44042638  0.91830056  0.56373534     0.06300
C429        C  0.08328254  0.74002461  0.34628095    -0.05000
C430        C  0.04978118  0.72637343  0.35320919    -0.05000
C431        C  0.03162814  0.69764227  0.37748731    -0.23100
C432        C  0.04662720  0.68182113  0.39440133     0.19100
C433        C  0.08001567  0.69461741  0.38601093     0.16300
C434        C  0.09818252  0.72380963  0.36238530    -0.18200
C435        C  0.09481989  0.67839939  0.40225128    -0.20000
C436        C  0.07717624  0.65079348  0.42870095    -0.12600
C437        C  0.04455842  0.63911283  0.43933076     0.04100
C438        C  0.02911481  0.65409068  0.42078206    -0.24700
H439        H  0.03786515  0.73839057  0.34075929     0.09200
H440        H  0.00599630  0.68802560  0.38347222     0.12800
H441        H  0.12392625  0.73392043  0.35640740     0.12700
H442        H  0.12031688  0.68771266  0.39569507     0.12500
H443        H  0.08950420  0.63969969  0.44277305     0.13000
H444        H  0.00379826  0.64495978  0.42852408     0.15000
C445        C  0.09155226  0.95140342  0.44563307    -0.05000
C446        C  0.06996720  0.91761906  0.44037854    -0.05000
C447        C  0.07848432  0.89990936  0.41386023    -0.23100
C448        C  0.10860610  0.91585909  0.39208182     0.19100
C449        C  0.12972607  0.95014816  0.39558888     0.16300
C450        C  0.12107862  0.96763963  0.42240008    -0.18200
C451        C  0.15950047  0.96623950  0.37306698    -0.20000
C452        C  0.16856995  0.94841909  0.34778547    -0.12600
C453        C  0.14835326  0.91423661  0.34551125     0.04100
C454        C  0.11825229  0.89809728  0.36745976    -0.24700
H455        H  0.04727781  0.90475090  0.45834591     0.09200
H456        H  0.06190787  0.87365989  0.41122099     0.12800
H457        H  0.13775634  0.99379393  0.42635066     0.12700
H458        H  0.17586109  0.99254819  0.37527364     0.12500
H459        H  0.19172245  0.96121619  0.33084679     0.13000
H460        H  0.10228190  0.87172215  0.36513136     0.15000
C461        C  0.25726253  0.85035151  0.34107665    -0.05000
C462        C  0.26883892  0.82913651  0.34196016    -0.05000
C463        C  0.29585384  0.83646992  0.36710059    -0.23100
C464        C  0.31216730  0.86552743  0.39095976     0.19100
C465        C  0.30155159  0.88771162  0.38871952     0.16300
C466        C  0.27394162  0.87977138  0.36429625    -0.18200
C467        C  0.31842992  0.91723384  0.41149205    -0.20000
C468        C  0.34487614  0.92421370  0.43752240    -0.12600
C469        C  0.35458758  0.90162563  0.44166650     0.04100
C470        C  0.33844418  0.87250027  0.41771595    -0.24700
H471        H  0.25641182  0.80644144  0.32416201     0.09200
H472        H  0.30381208  0.81930000  0.36817278     0.12800
H473        H  0.26545908  0.89653633  0.36321228     0.12700
H474        H  0.31077331  0.93462840  0.40983951     0.12500
H475        H  0.35685417  0.94661835  0.45595521     0.13000
H476        H  0.34595426  0.85502755  0.42068508     0.15000
C477        C  0.09045916  0.86179449  0.15846058    -0.05000
C478        C  0.05705948  0.83847661  0.15277885    -0.05000
C479        C  0.03856664  0.84429340  0.12407994    -0.23100
C480        C  0.05307540  0.87353225  0.10044787     0.19100
C481        C  0.08646887  0.89750771  0.10630339     0.16300
C482        C  0.10493910  0.89150849  0.13528423    -0.18200
C483        C  0.10078567  0.92689997  0.08278617    -0.20000
C484        C  0.08221320  0.93232059  0.05350709    -0.12600
C485        C  0.04914381  0.90831105  0.04703162     0.04100
C486        C  0.03472959  0.87905475  0.07086796    -0.24700
H487        H  0.04521346  0.81549267  0.17022618     0.09200
H488        H  0.01292601  0.82574694  0.12008525     0.12800
H489        H  0.13065223  0.90981799  0.13933484     0.12700
H490        H  0.12636111  0.94561025  0.08688456     0.12500
H491        H  0.09376342  0.95500789  0.03539372     0.13000
H492        H  0.00906838  0.86062554  0.06654041     0.15000
C493        C  0.11077810  0.64202392  0.06941185    -0.05000
C494        C  0.14085331  0.65501385  0.09044569    -0.05000
C495        C  0.15163812  0.68082496  0.11926904    -0.23100
C496        C  0.13267557  0.69434457  0.12710649     0.19100
C497        C  0.10182443  0.68058820  0.10722404     0.16300
C498        C  0.09088466  0.65423960  0.07890021    -0.18200
C499        C  0.08295881  0.69420017  0.11473535    -0.20000
C500        C  0.09474115  0.72153755  0.14099016    -0.12600
C501        C  0.12565917  0.73588356  0.16033810     0.04100
C502        C  0.14438791  0.72186821  0.15357236    -0.24700
H503        H  0.15646758  0.64577304  0.08346759     0.09200
H504        H  0.17523065  0.69086221  0.13434755     0.12800
H505        H  0.06785091  0.64452357  0.06235162     0.12700
H506        H  0.05929448  0.68401976  0.09979636     0.12500
H507        H  0.07965859  0.73168930  0.14569789     0.13000
H508        H  0.16811470  0.73249256  0.16850546     0.15000
C509        C  0.26246575  0.91126371  0.15679635    -0.05000
C510        C  0.27305753  0.94428635  0.14968408    -0.05000
C511        C  0.30042482  0.96434336  0.12402695    -0.23100
C512        C  0.31781352  0.95183156  0.10486839     0.19100
C513        C  0.30764993  0.91878330  0.11185600     0.16300
C514        C  0.28005781  0.89871529  0.13767632    -0.18200
C515        C  0.32520122  0.90638413  0.09270652    -0.20000
C516        C  0.35219682  0.92636388  0.06627436    -0.12600
C517        C  0.36208284  0.95907888  0.05834929     0.04100
C518        C  0.34494772  0.97172815  0.07841222    -0.24700
H519        H  0.26015805  0.95469975  0.16395821     0.09200
H520        H  0.30791558  0.98966285  0.11902300     0.12800
H521        H  0.27232688  0.87333755  0.14282107     0.12700
H522        H  0.31779061  0.88109061  0.09771797     0.12500
H523        H  0.36475175  0.91595499  0.05096788     0.13000
H524        H  0.35258926  0.99707181  0.07309482     0.15000
C525        C  0.41988111  0.65688326  0.64662551    -0.05000
C526        C  0.41969617  0.66255962  0.60242183    -0.05000
C527        C  0.43450790  0.65252311  0.57341028    -0.23100
C528        C  0.44962155  0.63635198  0.58796652     0.19100
C529        C  0.45086248  0.63113406  0.63237741     0.16300
C530        C  0.43620376  0.64178595  0.66166207    -0.18200
C531        C  0.46600037  0.61463722  0.64632666    -0.20000
C532        C  0.47990794  0.60369592  0.61653375    -0.12600
C533        C  0.47891207  0.60915695  0.57241148     0.04100
C534        C  0.46328328  0.62514141  0.55853401    -0.24700
H535        H  0.40730369  0.67413296  0.59011354     0.09200
H536        H  0.43354228  0.65682315  0.53944876     0.12800
H537        H  0.43608082  0.63691028  0.69566089     0.12700
H538        H  0.46718082  0.61030964  0.68020971     0.12500
H539        H  0.49206157  0.59165899  0.62797398     0.13000
H540        H  0.46176948  0.62892287  0.52451265     0.15000
C541        C  0.40392459  0.53907374  0.93691542    -0.05000
C542        C  0.42753691  0.57254666  0.93192945    -0.05000
C543        C  0.42163711  0.59216454  0.90525144    -0.23100
C544        C  0.39207849  0.57859368  0.88295440     0.19100
C545        C  0.36851868  0.54477783  0.88680682     0.16300
C546        C  0.37460488  0.52523868  0.91373373    -0.18200
C547        C  0.33908392  0.53123844  0.86420495    -0.20000
C548        C  0.33275274  0.55113462  0.83863941    -0.12600
C549        C  0.35579649  0.58492328  0.83511445     0.04100
C550        C  0.38557748  0.59836543  0.85724473    -0.24700
H551        H  0.45017444  0.58371104  0.94967452     0.09200
H552        H  0.44000743  0.61805866  0.90254448     0.12800
H553        H  0.35642694  0.49931345  0.91701927     0.12700
H554        H  0.32082551  0.50529527  0.86659033     0.12500
H555        H  0.30978173  0.54006686  0.82170248     0.13000
H556        H  0.40373326  0.62434375  0.85477476     0.15000
C557        C  0.46605470  0.86341123  0.93086306    -0.05000
C558        C  0.43266222  0.85202106  0.92828882    -0.05000
C559        C  0.41159088  0.82425245  0.90416408    -0.23100
C560        C  0.42354580  0.80740817  0.88206094     0.19100
C561        C  0.45715482  0.81889823  0.88391045     0.16300
C562        C  0.47816302  0.84682868  0.90812603    -0.18200
C563        C  0.46911211  0.80204334  0.86188942    -0.20000
C564        C  0.44797144  0.77396086  0.83836506    -0.12600
C565        C  0.41446827  0.76225810  0.83621241     0.04100
C566        C  0.40246638  0.77924160  0.85825547    -0.24700
H567        H  0.42268614  0.86406927  0.94596089     0.09200
H568        H  0.38585670  0.81573358  0.90319116     0.12800
H569        H  0.50394814  0.85555148  0.90959034     0.12700
H570        H  0.49484354  0.81055126  0.86291686     0.12500
H571        H  0.45793816  0.76156315  0.82152891     0.13000
H572        H  0.37668729  0.77054957  0.85699500     0.15000
C573        C  0.13367665  0.52224860  0.57283076    -0.05000
C574        C  0.12824654  0.51738158  0.61722292    -0.05000
C575        C  0.15468810  0.53091908  0.64559524    -0.23100
C576        C  0.18686231  0.54964528  0.62988387     0.19100
C577        C  0.19229436  0.55509016  0.58521728     0.16300
C578        C  0.16577500  0.54145466  0.55716386    -0.18200
C579        C  0.22417702  0.57405177  0.56916654    -0.20000
C580        C  0.25055476  0.58825754  0.59715970    -0.12600
C581        C  0.24562606  0.58344193  0.64170203     0.04100
C582        C  0.21367177  0.56354537  0.65791508    -0.24700
H583        H  0.10363580  0.00211102  0.62968951     0.09200
H584        H  0.15000346  0.52651839  0.67971343     0.12800
H585        H  0.17005493  0.54530373  0.52286890     0.12700
H586        H  0.22869268  0.57839317  0.53500236     0.12500
H587        H  0.27491950  0.60362290  0.58395416     0.13000
H588        H  0.20960621  0.56016202  0.69225772     0.15000
C589        C  0.38193298  0.86061307  0.57093980    -0.05000
C590        C  0.38486708  0.86743833  0.61506352    -0.05000
C591        C  0.37454258  0.84216521  0.64530050    -0.23100
C592        C  0.36163809  0.80980035  0.63176174     0.19100
C593        C  0.35866181  0.80299018  0.58729468     0.16300
C594        C  0.36854995  0.82827521  0.55738034    -0.18200
C595        C  0.34649665  0.77107397  0.57321111    -0.20000
C596        C  0.33844195  0.74620762  0.60274607    -0.12600
C597        C  0.34195077  0.75255808  0.64703529     0.04100
C598        C  0.35273180  0.78431296  0.66158091    -0.24700
H599        H  0.39481367  0.89225890  0.62605951     0.09200
H600        H  0.37703333  0.84797638  0.67915453     0.12800
H601        H  0.36644961  0.82292915  0.52335136     0.12700
H602        H  0.34402658  0.76548407  0.53927308     0.12500
H603        H  0.33006231  0.72191829  0.59079552     0.13000
H604        H  0.35584620  0.78949006  0.69563870     0.15000
C605        C  0.23723109  0.63114931  0.83895444    -0.05000
C606        C  0.22016309  0.59880177  0.85493294    -0.05000
C607        C  0.19274386  0.58732210  0.88105005    -0.23100
C608        C  0.18167416  0.60788037  0.89193338     0.19100
C609        C  0.19831658  0.64039417  0.87598760     0.16300
C610        C  0.22599891  0.65185579  0.84951162    -0.18200
C611        C  0.18719345  0.66093296  0.88736776    -0.20000
C612        C  0.16056772  0.64967138  0.91523265    -0.12600
C613        C  0.14439816  0.61759753  0.93191762     0.04100
C614        C  0.15470396  0.59661986  0.91939618    -0.24700
H615        H  0.22805279  0.58214955  0.84739714     0.09200
H616        H  0.18033991  0.56237618  0.89301925     0.12800
H617        H  0.23875863  0.67676174  0.83734224     0.12700
H618        H  0.19945231  0.68586914  0.87542293     0.12500
H619        H  0.15286718  0.66621384  0.92437861     0.13000
H620        H  0.14265351  0.57201883  0.93257281     0.15000
Zn621      Zn  0.83843602  0.16483535  0.68216654     1.49700
Zn622      Zn  0.80278867  0.11830859  0.75924909     1.49400
Zn623      Zn  0.87877587  0.17177016  0.76344713     1.49100
Zn624      Zn  0.82690033  0.19493150  0.76409969     1.49500
O625        O  0.83670709  0.16268492  0.74330383    -1.83900
O626        O  0.79706713  0.12989131  0.65689871    -0.74500
O627        O  0.82179111  0.09456540  0.78960065    -0.74400
O628        O  0.90588070  0.16899920  0.71495860    -0.73900
O629        O  0.77293373  0.09319488  0.70907463    -0.74600
O630        O  0.87393945  0.16038562  0.65915896    -0.74200
O631        O  0.87189583  0.13629107  0.80398662    -0.74700
O632        O  0.86323775  0.22619631  0.80332582    -0.74100
O633        O  0.77284697  0.12095365  0.80024443    -0.74900
O634        O  0.90234496  0.21534691  0.79483685    -0.74300
O635        O  0.78353074  0.17186977  0.79774919    -0.74800
O636        O  0.82819218  0.22434273  0.71500921    -0.74700
O637        O  0.84446585  0.20617651  0.66121758    -0.74400
C638        C  0.77341891  0.10274729  0.67073664     0.77300
C639        C  0.84931980  0.10626168  0.80820051     0.77800
C640        C  0.89920118  0.16277783  0.67526033     0.76800
C641        C  0.89216384  0.23291995  0.81024163     0.77200
C642        C  0.76617681  0.14220200  0.81094873     0.78300
C643        C  0.83785237  0.22643125  0.67626830     0.77400
C644        C  0.97510397  0.50230897  0.99743372     0.03300
C645        C  0.97597159  0.47369449  0.99397474    -0.12800
C646        C  0.00599810  0.47555035  0.99121493     0.00800
C647        C  0.53521988  0.50645513  0.99177656    -0.11300
C648        C  0.53485137  0.03525588  0.99585381     0.03300
C649        C  0.50472964  0.03297866  0.99879189    -0.10800
H650        H  0.95329957  0.45004237  0.99331353     0.08900
H651        H  0.55852300  0.00822885  0.98949862     0.06500
H652        H  0.50428681  0.05513590  0.00162183     0.09300
C653        C  0.90920544  0.01893023  0.96787309     0.03300
C654        C  0.93881757  0.02012558  0.96872746    -0.12800
C655        C  0.94356313  0.00067456  0.99774815     0.00800
C656        C  0.91821603  0.48007258  0.02662805    -0.11300
C657        C  0.88874898  0.47953065  0.02712051     0.03300
C658        C  0.88451211  0.99876792  0.99723211    -0.10800
H659        H  0.95795708  0.03563765  0.94600236     0.08900
H660        H  0.92189791  0.46539043  0.04951076     0.06500
H661        H  0.86176922  0.99811830  0.99680761     0.06300
C662        C  0.60259118  0.11910694  0.03363051     0.03300
C663        C  0.57244520  0.08923173  0.03134775    -0.12800
C664        C  0.56594971  0.06761115  0.99713592     0.00800
C665        C  0.58958358  0.07671949  0.96458687    -0.11300
C666        C  0.61915275  0.10728724  0.96577798     0.03300
C667        C  0.62546917  0.12798734  0.00060656    -0.10800
H668        H  0.55459446  0.08236242  0.05678758     0.08900
H669        H  0.58467732  0.06032965  0.93799037     0.06500
H670        H  0.64856106  0.15123843  0.00220759     0.06300
C671        C  0.52920967  0.41329738  0.01560054     0.03300
C672        C  0.50912350  0.38822030  0.98698335    -0.12800
C673        C  0.98777371  0.39104369  0.95957886     0.00800
C674        C  0.98658934  0.41958974  0.96116165    -0.11300
C675        C  0.50714172  0.44535910  0.98906100     0.03300
C676        C  0.52859537  0.44204637  0.01587088    -0.10800
H677        H  0.50955052  0.36597982  0.98686363     0.08900
H678        H  0.97015200  0.42200407  0.94018781     0.06500
H679        H  0.54373830  0.46124322  0.03844289     0.06300
Zn680      Zn  0.69261296  0.32527839  0.23174570     1.49700
Zn681      Zn  0.67444764  0.38021471  0.23347574     1.49400
Zn682      Zn  0.61759814  0.30543872  0.23774340     1.49100
Zn683      Zn  0.66378110  0.33672023  0.31261391     1.49500
O684        O  0.66239194  0.33704424  0.25207420    -1.83900
O685        O  0.72442138  0.36030522  0.19031110    -0.74500
O686        O  0.64046643  0.37640883  0.19238792    -0.74400
O687        O  0.61775236  0.27379664  0.19728488    -0.73900
O688        O  0.71808881  0.40220407  0.20181802    -0.74600
O689        O  0.66727233  0.28121394  0.20091897    -0.74200
O690        O  0.59701050  0.32700776  0.20655410    -0.74700
O691        O  0.63227933  0.29112536  0.33395521    -0.74100
O692        O  0.67213017  0.40591632  0.28378848    -0.74900
O693        O  0.59139444  0.27633925  0.28864353    -0.74300
O694        O  0.65114505  0.36737666  0.33466455    -0.74800
O695        O  0.70885863  0.35059714  0.33166538    -0.74700
O696        O  0.72179831  0.32710861  0.28075797    -0.74400
C697        C  0.73341913  0.39017912  0.18438181     0.77300
C698        C  0.61028586  0.35473381  0.18749308     0.77800
C699        C  0.63774873  0.26523601  0.18763621     0.76800
C700        C  0.60313836  0.27090944  0.32196844     0.77200
C701        C  0.65806619  0.39508190  0.32013415     0.78300
C702        C  0.72776002  0.34210098  0.31654527     0.77400
C703        C  0.52554818  0.99372065  0.51031973     0.03300
C704        C  0.99367945  0.46594643  0.50930988    -0.12800
C705        C  0.96642568  0.46915075  0.50765701     0.00800
C706        C  0.97133820  0.50058486  0.50698251    -0.11300
C707        C  0.50303083  0.02863452  0.50802439     0.03300
C708        C  0.53001862  0.02504573  0.50962631    -0.10800
H709        H  0.99007175  0.44176005  0.50981016     0.08900
H710        H  0.95044950  0.50323306  0.50596395     0.06500
H711        H  0.55448338  0.04663787  0.51034940     0.06300
C712        C  0.58575869  0.46928558  0.47938342     0.03300
C713        C  0.55758156  0.47085382  0.48040944    -0.12800
C714        C  0.55419446  0.49009407  0.51146140     0.00800
C715        C  0.57882278  0.00667246  0.54242335    -0.11300
C716        C  0.60665994  0.00446351  0.54192826     0.03300
C717        C  0.60977455  0.48579291  0.51045062    -0.10800
H718        H  0.53905515  0.45830820  0.45607872     0.08900
H719        H  0.57654607  0.02155807  0.56642264     0.06500
H720        H  0.63120259  0.48399227  0.51009619     0.06300
C721        C  0.99558921  0.10021811  0.54030899     0.03300
C722        C  0.01361804  0.12258690  0.50751148    -0.12800
C723        C  0.52789363  0.11482399  0.47442637     0.00800
C724        C  0.52562806  0.08450358  0.47543783    -0.11300
C725        C  0.00765660  0.06160216  0.50831943     0.03300
C726        C  0.99265840  0.06964365  0.54061518    -0.10800
H727        H  0.01659195  0.14651102  0.50762278     0.08900
H728        H  0.53664108  0.07824533  0.44999610     0.06500
H729        H  0.97832538  0.05191689  0.56546823     0.06300
C730        C  0.89204836  0.38672364  0.53842112     0.03300
C731        C  0.87030619  0.38250403  0.50575920    -0.12800
C732        C  0.87905203  0.40668023  0.47439118     0.00800
C733        C  0.91025598  0.43550637  0.47566074    -0.11300
C734        C  0.93284265  0.43961950  0.50741875     0.03300
C735        C  0.92336887  0.41521195  0.53896207    -0.10800
H736        H  0.84605104  0.36056773  0.50538341     0.08900
H737        H  0.91721899  0.45424684  0.45137510     0.06500
H738        H  0.94045360  0.41827542  0.56372642     0.06300
C739        C  0.58336414  0.24008590  0.34638342    -0.05000
C740        C  0.54986701  0.22644453  0.35333436    -0.05000
C741        C  0.53171485  0.19771642  0.37761750    -0.23100
C742        C  0.54670885  0.18188526  0.39451351     0.19100
C743        C  0.58009279  0.19467044  0.38610406     0.16300
C744        C  0.59826120  0.22386314  0.36247477    -0.18200
C745        C  0.59488860  0.17843775  0.40232434    -0.20000
C746        C  0.57724057  0.15082632  0.42876659    -0.12600
C747        C  0.54462690  0.13915497  0.43941158     0.04100
C748        C  0.52919326  0.15415169  0.42088876    -0.24700
H749        H  0.53795294  0.23846708  0.34089606     0.09200
H750        H  0.50608652  0.18810809  0.38361703     0.12800
H751        H  0.62400137  0.23396590  0.35648024     0.12700
H752        H  0.62038149  0.18774088  0.39575359     0.12500
H753        H  0.58956145  0.13971786  0.44281671     0.13000
H754        H  0.50387962  0.14502803  0.42863895     0.15000
C755        C  0.59154101  0.45138911  0.44575634    -0.05000
C756        C  0.57001247  0.41758476  0.44060953    -0.05000
C757        C  0.57854759  0.39988322  0.41410332    -0.23100
C758        C  0.60863033  0.41586086  0.39222992     0.19100
C759        C  0.62968924  0.45016470  0.39563245     0.16300
C760        C  0.62102608  0.46764810  0.42243607    -0.18200
C761        C  0.65942108  0.46628096  0.37301374    -0.20000
C762        C  0.66851000  0.44847247  0.34773895    -0.12600
C763        C  0.64835833  0.41427886  0.34556796     0.04100
C764        C  0.61829818  0.39811379  0.36761422    -0.24700
H765        H  0.54735769  0.40470050  0.45864939     0.09200
H766        H  0.56201775  0.37362126  0.41154594     0.12800
H767        H  0.63766164  0.49381651  0.42631247     0.12700
H768        H  0.67573344  0.49260076  0.37513774     0.12500
H769        H  0.69162843  0.46129066  0.33072211     0.13000
H770        H  0.60237411  0.37172921  0.36536473     0.15000
C771        C  0.75735976  0.35044260  0.34100608    -0.05000
C772        C  0.76901049  0.32928759  0.34174211    -0.05000
C773        C  0.79603688  0.33662109  0.36685701    -0.23100
C774        C  0.81228475  0.36561921  0.39084160     0.19100
C775        C  0.80159917  0.38775154  0.38874074     0.16300
C776        C  0.77398296  0.37981189  0.36433603    -0.18200
C777        C  0.81841013  0.41721799  0.41163900    -0.20000
C778        C  0.84485556  0.42418764  0.43766098    -0.12600
C779        C  0.85463341  0.40164400  0.44166760     0.04100
C780        C  0.83856091  0.37257962  0.41759086    -0.24700
H781        H  0.75663153  0.30663484  0.32385087     0.09200
H782        H  0.80405140  0.31949419  0.36781719     0.12800
H783        H  0.76544770  0.39653560  0.36336149     0.12700
H784        H  0.81069912  0.43457278  0.41009392     0.12500
H785        H  0.85678081  0.44654430  0.45619352     0.13000
H786        H  0.84612338  0.35514240  0.42045838     0.15000
C787        C  0.59045945  0.36179561  0.15847887    -0.05000
C788        C  0.55704940  0.33848992  0.15285950    -0.05000
C789        C  0.53854048  0.34429642  0.12417558    -0.23100
C790        C  0.55304268  0.37351320  0.10049557     0.19100
C791        C  0.58644835  0.39747580  0.10628255     0.16300
C792        C  0.60493562  0.39148612  0.13524731    -0.18200
C793        C  0.60075824  0.42684705  0.08271830    -0.20000
C794        C  0.58216608  0.43225979  0.05346293    -0.12600
C795        C  0.54908377  0.40826200  0.04705608     0.04100
C796        C  0.53467747  0.37902640  0.07093657    -0.24700
H797        H  0.54520567  0.31552454  0.17034982     0.09200
H798        H  0.51289112  0.32576024  0.12023356     0.12800
H799        H  0.63065686  0.40978588  0.13924737     0.12700
H800        H  0.62634292  0.44554739  0.08676297     0.12500
H801        H  0.59371044  0.45493015  0.03531285     0.13000
H802        H  0.50900783  0.36060603  0.06665818     0.15000
C803        C  0.61083515  0.14202574  0.06960011    -0.05000
C804        C  0.64090826  0.15502313  0.09064236    -0.05000
C805        C  0.65168475  0.18083828  0.11945757    -0.23100
C806        C  0.63271609  0.19435421  0.12727500     0.19100
C807        C  0.60186281  0.18058265  0.10739444     0.16300
C808        C  0.59093052  0.15422882  0.07908364    -0.18200
C809        C  0.58299047  0.19418990  0.11488433    -0.20000
C810        C  0.59477131  0.22154258  0.14110846    -0.12600
C811        C  0.62569335  0.23590697  0.16044773     0.04100
C812        C  0.64442629  0.22189237  0.15371174    -0.24700
H813        H  0.65652990  0.14578995  0.08367043     0.09200
H814        H  0.67527804  0.19088568  0.13453765     0.12800
H815        H  0.56789754  0.14450552  0.06253059     0.12700
H816        H  0.55932384  0.18399643  0.09994720     0.12500
H817        H  0.57968538  0.23169247  0.14579726     0.13000
H818        H  0.66815542  0.23252996  0.16864190     0.15000
C819        C  0.76247893  0.41132390  0.15685252    -0.05000
C820        C  0.77311014  0.44436154  0.14979084    -0.05000
C821        C  0.80047721  0.46440855  0.12412772    -0.23100
C822        C  0.81782385  0.45186966  0.10491527     0.19100
C823        C  0.80762389  0.41880765  0.11186438     0.16300
C824        C  0.78003475  0.39875203  0.13768992    -0.18200
C825        C  0.82513305  0.40637990  0.09266733    -0.20000
C826        C  0.85212201  0.42634513  0.06622149    -0.12600
C827        C  0.86204086  0.45907229  0.05833037     0.04100
C828        C  0.84494981  0.47175098  0.07844055    -0.24700
H829        H  0.76024035  0.45479275  0.16410549     0.09200
H830        H  0.80799854  0.48973967  0.11915791     0.12800
H831        H  0.77227476  0.37336297  0.14279990     0.12700
H832        H  0.81769358  0.38107554  0.09765107     0.12500
H833        H  0.86464579  0.41591714  0.05087757     0.13000
H834        H  0.85261870  0.49710425  0.07314370     0.15000
C835        C  0.91985720  0.15681897  0.64661898    -0.05000
C836        C  0.91968970  0.16250962  0.60241717    -0.05000
C837        C  0.93450084  0.15246966  0.57341040    -0.23100
C838        C  0.94959547  0.13628092  0.58797092     0.19100
C839        C  0.95081301  0.13104284  0.63238075     0.16300
C840        C  0.93615541  0.14169833  0.66166021    -0.18200
C841        C  0.96593047  0.11452688  0.64633372    -0.20000
C842        C  0.97985116  0.10359657  0.61654580    -0.12600
C843        C  0.97888685  0.10908704  0.57242622     0.04100
C844        C  0.96326696  0.12507844  0.55854374    -0.24700
H845        H  0.90731229  0.17409816  0.59010736     0.09200
H846        H  0.93355220  0.15678350  0.53944955     0.12800
H847        H  0.93601494  0.13680923  0.69565771     0.12700
H848        H  0.96708958  0.11018089  0.68021571     0.12500
H849        H  0.99199407  0.09154945  0.62798863     0.13000
H850        H  0.96177528  0.12887882  0.52452274     0.15000
C851        C  0.90395944  0.03907921  0.93692339    -0.05000
C852        C  0.92758591  0.07254108  0.93185574    -0.05000
C853        C  0.92168061  0.09213857  0.90514375    -0.23100
C854        C  0.89210048  0.07855998  0.88289646     0.19100
C855        C  0.86852365  0.04475522  0.88683156     0.16300
C856        C  0.87461696  0.02523545  0.91378847    -0.18200
C857        C  0.83906597  0.03120847  0.86428037    -0.20000
C858        C  0.83272809  0.05108888  0.83868911    -0.12600
C859        C  0.85578791  0.08486872  0.83508755     0.04100
C860        C  0.88559379  0.09831498  0.85715947    -0.24700
H861        H  0.95024142  0.08371503  0.94956114     0.09200
H862        H  0.94006412  0.11802480  0.90237302     0.12800
H863        H  0.85642737  0.99931813  0.91713021     0.12700
H864        H  0.82079374  0.00527278  0.86672900     0.12500
H865        H  0.80973770  0.04001737  0.82179858     0.13000
H866        H  0.90376370  0.12428596  0.85462878     0.15000
C867        C  0.96597144  0.36332378  0.93091977    -0.05000
C868        C  0.93258349  0.35194620  0.92829967    -0.05000
C869        C  0.91152059  0.32417980  0.90416415    -0.23100
C870        C  0.92347922  0.30732453  0.88209601     0.19100
C871        C  0.95708259  0.31879848  0.88399726     0.16300
C872        C  0.97808220  0.34672728  0.90822060    -0.18200
C873        C  0.96904413  0.30193202  0.86201492    -0.20000
C874        C  0.94791450  0.27385827  0.83846891    -0.12600
C875        C  0.91441832  0.26217580  0.83625501     0.04100
C876        C  0.90241046  0.27916585  0.85826943    -0.24700
H877        H  0.92260365  0.36400377  0.94594124     0.09200
H878        H  0.88579026  0.31567288  0.90315259     0.12800
H879        H  0.00386381  0.35543999  0.90971585     0.12700
H880        H  0.99477113  0.31042613  0.86308578     0.12500
H881        H  0.95788531  0.26145329  0.82166089     0.13000
H882        H  0.87663583  0.27048764  0.85696544     0.15000
C883        C  0.63365933  0.02219868  0.57278562    -0.05000
C884        C  0.62822414  0.01729268  0.61717297    -0.05000
C885        C  0.65466178  0.03081929  0.64555151    -0.23100
C886        C  0.68683733  0.04957307  0.62985176     0.19100
C887        C  0.69227420  0.05505299  0.58519026     0.16300
C888        C  0.66575881  0.04142847  0.55713058    -0.18200
C889        C  0.72415753  0.07403844  0.56915057    -0.20000
C890        C  0.75053068  0.08823461  0.59715028    -0.12600
C891        C  0.74559746  0.08338876  0.64168950     0.04100
C892        C  0.71364281  0.06346667  0.65789020    -0.24700
H893        H  0.60365247  0.50222260  0.62975849     0.09200
H894        H  0.64997309  0.02638950  0.67966536     0.12800
H895        H  0.67004288  0.04530497  0.52283896     0.12700
H896        H  0.72867718  0.07840593  0.53499019     0.12500
H897        H  0.77489514  0.10361793  0.58395211     0.13000
H898        H  0.70957284  0.06005745  0.69223001     0.15000
C899        C  0.88198485  0.36056014  0.57086689    -0.05000
C900        C  0.88492245  0.36738196  0.61499169    -0.05000
C901        C  0.87459423  0.34210758  0.64522500    -0.23100
C902        C  0.86168039  0.30974285  0.63168304     0.19100
C903        C  0.85870549  0.30293396  0.58721549     0.16300
C904        C  0.86859912  0.32822219  0.55730225    -0.18200
C905        C  0.84653229  0.27101537  0.57313309    -0.20000
C906        C  0.83846418  0.24614594  0.60267076    -0.12600
C907        C  0.84196674  0.25249628  0.64696062     0.04100
C908        C  0.85276025  0.28425384  0.66150278    -0.24700
H909        H  0.89487183  0.39220191  0.62599260     0.09200
H910        H  0.87708585  0.34791720  0.67907940     0.12800
H911        H  0.86649744  0.32287816  0.52327285     0.12700
H912        H  0.84406410  0.26542550  0.53919516     0.12500
H913        H  0.83007736  0.22185424  0.59072281     0.13000
H914        H  0.85587189  0.28943094  0.69556058     0.15000
C915        C  0.73725373  0.13115899  0.83899687    -0.05000
C916        C  0.72019535  0.09882110  0.85500783    -0.05000
C917        C  0.69280377  0.08736258  0.88117166    -0.23100
C918        C  0.68175139  0.10793218  0.89207059     0.19100
C919        C  0.69838768  0.14043973  0.87610347     0.16300
C920        C  0.72604293  0.15188045  0.84957810    -0.18200
C921        C  0.68728312  0.16099047  0.88750858    -0.20000
C922        C  0.66067407  0.14974136  0.91540302    -0.12600
C923        C  0.64450117  0.11766736  0.93208778     0.04100
C924        C  0.65479866  0.09668479  0.91956035    -0.24700
H925        H  0.72807090  0.08215925  0.84746072     0.09200
H926        H  0.68040537  0.06242228  0.89316099     0.12800
H927        H  0.73879803  0.17678096  0.83738958     0.12700
H928        H  0.69953980  0.18592370  0.87555333     0.12500
H929        H  0.65298283  0.16628911  0.92456038     0.13000
H930        H  0.64274791  0.07208518  0.93274204     0.15000
Zn931      Zn  0.83846020  0.66490796  0.68219170     1.49700
Zn932      Zn  0.80281968  0.61836304  0.75925461     1.49400
Zn933      Zn  0.87879844  0.67182507  0.76347112     1.49100
Zn934      Zn  0.82691852  0.69497913  0.76415245     1.49500
O935        O  0.83673112  0.66274379  0.74332842    -1.83900
O936        O  0.79709097  0.62996074  0.65691198    -0.74500
O937        O  0.82182414  0.59462865  0.78960591    -0.74400
O938        O  0.90589227  0.66903351  0.71498219    -0.73900
O939        O  0.77297493  0.59325134  0.70907764    -0.74600
O940        O  0.87397251  0.66047090  0.65917573    -0.74200
O941        O  0.87191548  0.63635920  0.80404349    -0.74700
O942        O  0.86326661  0.72625109  0.80336327    -0.74100
O943        O  0.77285766  0.62097857  0.80023626    -0.74900
O944        O  0.90238211  0.71541915  0.79481650    -0.74300
O945        O  0.78354319  0.67189605  0.79779169    -0.74800
O946        O  0.82819281  0.72439406  0.71508230    -0.74700
O947        O  0.84447797  0.70625262  0.66127370    -0.74400
C948        C  0.77345090  0.60280950  0.67074640     0.77300
C949        C  0.84934200  0.60632625  0.80823425     0.77800
C950        C  0.89922329  0.66283818  0.67527726     0.76800
C951        C  0.89220334  0.73299011  0.81023534     0.77200
C952        C  0.76618040  0.64221869  0.81095335     0.78300
C953        C  0.83785322  0.72649562  0.67633949     0.77400
C954        C  0.97517302  0.00236532  0.99747718     0.03300
C955        C  0.97604556  0.97375547  0.99398371    -0.12800
C956        C  0.00607437  0.97561675  0.99121987     0.00800
C957        C  0.53529115  0.00651754  0.99180387    -0.11300
C958        C  0.53478179  0.53519710  0.99579275     0.03300
C959        C  0.50466233  0.53292269  0.99872718    -0.10800
H960        H  0.95337539  0.95010255  0.99330089     0.08900
H961        H  0.55845081  0.50816466  0.98947217     0.06500
H962        H  0.50422162  0.55508242  0.00153220     0.09300
C963        C  0.90915771  0.51890650  0.96784632     0.03300
C964        C  0.93876096  0.52008539  0.96868690    -0.12800
C965        C  0.94349922  0.50062642  0.99770248     0.00800
C966        C  0.91827742  0.98011043  0.02666732    -0.11300
C967        C  0.88880059  0.97955180  0.02715042     0.03300
C968        C  0.88446424  0.49875136  0.99720743    -0.10800
H969        H  0.95790028  0.53559582  0.94596053     0.08900
H970        H  0.92196411  0.96543147  0.04954955     0.06500
H971        H  0.86172769  0.49811512  0.99679372     0.06300
C972        C  0.60251641  0.61908743  0.03345919     0.03300
C973        C  0.57237642  0.58920352  0.03121670    -0.12800
C974        C  0.56587693  0.56755634  0.99703594     0.00800
C975        C  0.58949777  0.57664851  0.96447275    -0.11300
C976        C  0.61905847  0.60722560  0.96562098     0.03300
C977        C  0.62538134  0.62794951  0.00042412    -0.10800
H978        H  0.55453533  0.58234753  0.05666612     0.08900
H979        H  0.58458638  0.56024001  0.93789773     0.06500
H980        H  0.64847026  0.65120527  0.00199923     0.06300
C981        C  0.52928372  0.91335849  0.01556368     0.03300
C982        C  0.50920962  0.88829346  0.98692456    -0.12800
C983        C  0.98786771  0.89113057  0.95951983     0.00800
C984        C  0.98668094  0.91967412  0.96112072    -0.11300
C985        C  0.50721994  0.94542686  0.98903799     0.03300
C986        C  0.52866620  0.94210533  0.01585058    -0.10800
H987        H  0.50963767  0.86605355  0.98678988     0.08900
H988        H  0.97024560  0.92209419  0.94014999     0.06500
H989        H  0.54379803  0.96129212  0.03844026     0.06300
Zn990      Zn  0.69258772  0.82521926  0.23172337     1.49700
Zn991      Zn  0.67443962  0.88017104  0.23344172     1.49400
Zn992      Zn  0.61756687  0.80539881  0.23767480     1.49100
Zn993      Zn  0.66371532  0.83665191  0.31255933     1.49500
O994        O  0.66236273  0.83699144  0.25202073    -1.83900
O995        O  0.72442415  0.86025085  0.19029586    -0.74500
O996        O  0.64045380  0.87639268  0.19238854    -0.74400
O997        O  0.61772567  0.77376617  0.19720741    -0.73900
O998        O  0.71806679  0.90213957  0.20174824    -0.74600
O999        O  0.66723637  0.78116043  0.20086497    -0.74200
O1000       O  0.59699500  0.82698181  0.20649763    -0.74700
O1001       O  0.63220423  0.79105841  0.33387630    -0.74100
O1002       O  0.67215754  0.90587897  0.28377238    -0.74900
O1003       O  0.59133300  0.77629436  0.28855171    -0.74300
O1004       O  0.65106558  0.86729712  0.33459113    -0.74800
O1005       O  0.70877902  0.85052670  0.33166617    -0.74700
O1006       O  0.72173923  0.82703340  0.28078803    -0.74400
C1007       C  0.73340793  0.89011832  0.18433339     0.77300
C1008       C  0.61027501  0.85472073  0.18747219     0.77800
C1009       C  0.63771752  0.76519969  0.18755859     0.76800
C1010       C  0.60306450  0.77085264  0.32187820     0.77200
C1011       C  0.65804394  0.89502678  0.32008695     0.78300
C1012       C  0.72768249  0.84202318  0.31657708     0.77400
C1013       C  0.52555983  0.49375427  0.51037439     0.03300
C1014       C  0.99366603  0.96591728  0.50925197    -0.12800
C1015       C  0.96641696  0.96913168  0.50759967     0.00800
C1016       C  0.97134102  0.00057016  0.50692603    -0.11300
C1017       C  0.50302598  0.52865470  0.50807513     0.03300
C1018       C  0.53002080  0.52507591  0.50967820    -0.10800
H1019       H  0.99005102  0.94172789  0.50975512     0.08900
H1020       H  0.95045704  0.00322621  0.50591438     0.06500
H1021       H  0.55448276  0.54667243  0.51039463     0.06300
C1022       C  0.58576445  0.96928450  0.47928645     0.03300
C1023       C  0.55758161  0.97084327  0.48032583    -0.12800
C1024       C  0.55418189  0.99005849  0.51140381     0.00800
C1025       C  0.57884104  0.50672158  0.54246911    -0.11300
C1026       C  0.60667248  0.50450302  0.54198728     0.03300
C1027       C  0.60977342  0.98577714  0.51036721    -0.10800
H1028       H  0.53905974  0.95830998  0.45598635     0.08900
H1029       H  0.57657253  0.52162360  0.56645025     0.06500
H1030       H  0.63120365  0.98398036  0.51000912     0.06300
C1031       C  0.99558241  0.60025624  0.54028489     0.03300
C1032       C  0.01358210  0.62259528  0.50744666    -0.12800
C1033       C  0.52783906  0.61480678  0.47436860     0.00800
C1034       C  0.52558540  0.58449318  0.47541901    -0.11300
C1035       C  0.00764032  0.56161908  0.50833622     0.03300
C1036       C  0.99265918  0.56968403  0.54062962    -0.10800
H1037       H  0.01655289  0.64651799  0.50752579     0.08900
H1038       H  0.53658844  0.57821933  0.44998133     0.06500
H1039       H  0.97834686  0.55197756  0.56551226     0.06300
C1040       C  0.89199982  0.88676576  0.53848170     0.03300
C1041       C  0.87025106  0.88254159  0.50582762    -0.12800
C1042       C  0.87900941  0.90668508  0.47440730     0.00800
C1043       C  0.91023312  0.93549123  0.47562835    -0.11300
C1044       C  0.93282411  0.93961139  0.50738770     0.03300
C1045       C  0.92333802  0.91523108  0.53897497    -0.10800
H1046       H  0.84598435  0.86062059  0.50548974     0.08900
H1047       H  0.91720726  0.95420981  0.45130718     0.06500
H1048       H  0.94042645  0.91829683  0.56373512     0.06300
C1049       C  0.58328246  0.74002557  0.34627859    -0.05000
C1050       C  0.54978329  0.72638027  0.35321766    -0.05000
C1051       C  0.53163040  0.69765029  0.37749788    -0.23100
C1052       C  0.54662746  0.68182460  0.39440328     0.19100
C1053       C  0.58001337  0.69461487  0.38600182     0.16300
C1054       C  0.59818023  0.72380592  0.36237388    -0.18200
C1055       C  0.59481537  0.67839233  0.40223398    -0.20000
C1056       C  0.57717250  0.65078811  0.42868677    -0.12600
C1057       C  0.54455779  0.63911362  0.43932760     0.04100
C1058       C  0.52911577  0.65409559  0.42078638    -0.24700
H1059       H  0.53786911  0.73840146  0.34077498     0.09200
H1060       H  0.50600058  0.68803832  0.38349153     0.12800
H1061       H  0.62392217  0.73391249  0.35638773     0.12700
H1062       H  0.62031012  0.68770081  0.39566914     0.12500
H1063       H  0.58949923  0.63969082  0.44275236     0.13000
H1064       H  0.50380133  0.64496904  0.42853582     0.15000
C1065       C  0.59155035  0.95139823  0.44564587    -0.05000
C1066       C  0.56996814  0.91761297  0.44039562    -0.05000
C1067       C  0.57848632  0.89990410  0.41387729    -0.23100
C1068       C  0.60860628  0.91585558  0.39209437     0.19100
C1069       C  0.62972349  0.95014523  0.39559797     0.16300
C1070       C  0.62107516  0.96763576  0.42240970    -0.18200
C1071       C  0.65949587  0.96623820  0.37307152    -0.20000
C1072       C  0.66856617  0.94841907  0.34778857    -0.12600
C1073       C  0.64835233  0.91423614  0.34551732     0.04100
C1074       C  0.61825332  0.89809508  0.36747079    -0.24700
H1075       H  0.54728003  0.90474377  0.45836584     0.09200
H1076       H  0.56191201  0.87365409  0.41124097     0.12800
H1077       H  0.63775088  0.99379078  0.42635751     0.12700
H1078       H  0.67585437  0.99254743  0.37527550     0.12500
H1079       H  0.69171700  0.96121757  0.33084635     0.13000
H1080       H  0.60228494  0.87171959  0.36514491     0.15000
C1081       C  0.75726434  0.85035563  0.34107617    -0.05000
C1082       C  0.76884794  0.82914646  0.34194710    -0.05000
C1083       C  0.79586385  0.83648034  0.36708575    -0.23100
C1084       C  0.81217119  0.86553272  0.39095585     0.19100
C1085       C  0.80154813  0.88771142  0.38872880     0.16300
C1086       C  0.77393717  0.87977049  0.36430719    -0.18200
C1087       C  0.81842038  0.91722890  0.41151229    -0.20000
C1088       C  0.84486805  0.92420931  0.43753998    -0.12600
C1089       C  0.85458687  0.90162625  0.44167053     0.04100
C1090       C  0.83844927  0.87250569  0.41770990    -0.24700
H1091       H  0.75642600  0.80645548  0.32414009     0.09200
H1092       H  0.80382777  0.81931478  0.36814769     0.12800
H1093       H  0.76544930  0.89653120  0.36323314     0.12700
H1094       H  0.81075799  0.93461927  0.40987015     0.12500
H1095       H  0.85684143  0.94660985  0.45598119     0.13000
H1096       H  0.84596472  0.85503671  0.42066957     0.15000
C1097       C  0.59045777  0.86179834  0.15846638    -0.05000
C1098       C  0.55705715  0.83848191  0.15278973    -0.05000
C1099       C  0.53856333  0.84429804  0.12409172    -0.23100
C1100       C  0.55307228  0.87353488  0.10045517     0.19100
C1101       C  0.58646664  0.89750930  0.10630607     0.16300
C1102       C  0.60493780  0.89151085  0.13528645    -0.18200
C1103       C  0.60078355  0.92689957  0.08278429    -0.20000
C1104       C  0.58221033  0.93231893  0.05350482    -0.12600
C1105       C  0.54914011  0.90831006  0.04703363     0.04100
C1106       C  0.53472572  0.87905605  0.07087487    -0.24700
H1107       H  0.54521096  0.81549924  0.17024035     0.09200
H1108       H  0.51292218  0.82575265  0.12010086     0.12800
H1109       H  0.63065146  0.90981916  0.13933317     0.12700
H1110       H  0.62635955  0.94560903  0.08687912     0.12500
H1111       H  0.59376054  0.95500446  0.03538781     0.13000
H1112       H  0.50906398  0.86062755  0.06655047     0.15000
C1113       C  0.61077759  0.64202426  0.06941184    -0.05000
C1114       C  0.64085134  0.65501180  0.09044864    -0.05000
C1115       C  0.65163647  0.68082286  0.11927242    -0.23100
C1116       C  0.63267574  0.69434506  0.12710675     0.19100
C1117       C  0.60182626  0.68059142  0.10722049     0.16300
C1118       C  0.59088604  0.65424271  0.07889667    -0.18200
C1119       C  0.58296258  0.69420601  0.11472805    -0.20000
C1120       C  0.59474510  0.72154317  0.14098332    -0.12600
C1121       C  0.62566136  0.73588639  0.16033558     0.04100
C1122       C  0.64438835  0.72186859  0.15357326    -0.24700
H1123       H  0.65646431  0.64576901  0.08347272     0.09200
H1124       H  0.67522762  0.69085795  0.13435353     0.12800
H1125       H  0.56785370  0.64452873  0.06234560     0.12700
H1126       H  0.55929969  0.68402782  0.09978594     0.12500
H1127       H  0.57966405  0.73169687  0.14568804     0.13000
H1128       H  0.66811368  0.73249077  0.16850952     0.15000
C1129       C  0.76246296  0.91126420  0.15679111    -0.05000
C1130       C  0.77305432  0.94428643  0.14967634    -0.05000
C1131       C  0.80042187  0.96434287  0.12401925    -0.23100
C1132       C  0.81781126  0.95183080  0.10486336     0.19100
C1133       C  0.80764762  0.91878271  0.11185250     0.16300
C1134       C  0.78005511  0.89871524  0.13767256    -0.18200
C1135       C  0.82519959  0.90638335  0.09270540    -0.20000
C1136       C  0.85219624  0.92636295  0.06627458    -0.12600
C1137       C  0.86208260  0.95907793  0.05834850     0.04100
C1138       C  0.84494650  0.97172719  0.07840873    -0.24700
H1139       H  0.76015458  0.95470009  0.16394890     0.09200
H1140       H  0.80791251  0.98966206  0.11901375     0.12800
H1141       H  0.77232441  0.87333780  0.14281899     0.12700
H1142       H  0.81778889  0.88108995  0.09771793     0.12500
H1143       H  0.86475183  0.91595401  0.05097004     0.13000
H1144       H  0.85258820  0.99707078  0.07309063     0.15000
C1145       C  0.91987891  0.65688199  0.64662690    -0.05000
C1146       C  0.91969600  0.66256096  0.60242368    -0.05000
C1147       C  0.93450795  0.65252491  0.57341175    -0.23100
C1148       C  0.94961949  0.63635144  0.58796712     0.19100
C1149       C  0.95085781  0.63113042  0.63237761     0.16300
C1150       C  0.93619906  0.64178195  0.66166262    -0.18200
C1151       C  0.96599336  0.61463115  0.64632616    -0.20000
C1152       C  0.97990148  0.60369068  0.61653297    -0.12600
C1153       C  0.97890836  0.60915483  0.57241103     0.04100
C1154       C  0.96328168  0.62514158  0.55853427    -0.24700
H1155       H  0.90730527  0.67413629  0.59011617     0.09200
H1156       H  0.93354428  0.65682729  0.53945048     0.12800
H1157       H  0.93607431  0.63690413  0.69566109     0.12700
H1158       H  0.96717165  0.61030111  0.68020886     0.12500
H1159       H  0.99205332  0.59165194  0.62797283     0.13000
H1160       H  0.96176963  0.62892524  0.52451305     0.15000
C1161       C  0.90392650  0.53907583  0.93692050    -0.05000
C1162       C  0.92753848  0.57254891  0.93193544    -0.05000
C1163       C  0.92163866  0.59216686  0.90525762    -0.23100
C1164       C  0.89208038  0.57859586  0.88295969     0.19100
C1165       C  0.86852097  0.54477982  0.88681112     0.16300
C1166       C  0.87460712  0.52524061  0.91373807    -0.18200
C1167       C  0.83908661  0.53124029  0.86420828    -0.20000
C1168       C  0.83275531  0.55113647  0.83864285    -0.12600
C1169       C  0.85579864  0.58492532  0.83511896     0.04100
C1170       C  0.88557930  0.59836764  0.85725012    -0.24700
H1171       H  0.95017579  0.58371333  0.94968112     0.09200
H1172       H  0.94000869  0.61806110  0.90255143     0.12800
H1173       H  0.85642950  0.49931530  0.91702307     0.12700
H1174       H  0.82082855  0.50529697  0.86659282     0.12500
H1175       H  0.80978472  0.54006862  0.82170523     0.13000
H1176       H  0.90373473  0.62434610  0.85478099     0.15000
C1177       C  0.96606018  0.86341696  0.93085974    -0.05000
C1178       C  0.93266716  0.85202501  0.92828880    -0.05000
C1179       C  0.91159577  0.82425575  0.90416525    -0.23100
C1180       C  0.92355105  0.80741259  0.88206016     0.19100
C1181       C  0.95716068  0.81890478  0.88390576     0.16300
C1182       C  0.97816900  0.84683595  0.90812006    -0.18200
C1183       C  0.96911829  0.80205095  0.86188271    -0.20000
C1184       C  0.94797728  0.77396724  0.83836054    -0.12600
C1185       C  0.91447347  0.76226226  0.83621214     0.04100
C1186       C  0.90247144  0.77924494  0.85825687    -0.24700
H1187       H  0.92269083  0.86407205  0.94596289     0.09200
H1188       H  0.88586098  0.81573519  0.90319517     0.12800
H1189       H  0.00395455  0.85556018  0.90958203     0.12700
H1190       H  0.99485025  0.81056057  0.86290706     0.12500
H1191       H  0.95794415  0.76157030  0.82152275     0.13000
H1192       H  0.87669171  0.77055121  0.85699955     0.15000
C1193       C  0.63367728  0.52225329  0.57283264    -0.05000
C1194       C  0.62824626  0.51738493  0.61722448    -0.05000
C1195       C  0.65468709  0.53092280  0.64559800    -0.23100
C1196       C  0.68686159  0.54965067  0.62988799     0.19100
C1197       C  0.69229443  0.55509740  0.58522169     0.16300
C1198       C  0.66577573  0.54146157  0.55716716    -0.18200
C1199       C  0.72417725  0.57406058  0.56917221    -0.20000
C1200       C  0.75055440  0.58826518  0.59716620    -0.12600
C1201       C  0.74562512  0.58344724  0.64170822     0.04100
C1202       C  0.71367054  0.56354998  0.65792024    -0.24700
H1203       H  0.60363006  0.00211121  0.62969794     0.09200
H1204       H  0.65000173  0.52652073  0.67971580     0.12800
H1205       H  0.67005629  0.54531162  0.52287233     0.12700
H1206       H  0.72869352  0.57840360  0.53500836     0.12500
H1207       H  0.77491933  0.60363128  0.58396141     0.13000
H1208       H  0.70960448  0.56016501  0.69226248     0.15000
C1209       C  0.88193127  0.86061104  0.57094177    -0.05000
C1210       C  0.88487248  0.86743871  0.61506508    -0.05000
C1211       C  0.87454904  0.84216676  0.64530351    -0.23100
C1212       C  0.86163848  0.80980053  0.63176665     0.19100
C1213       C  0.85865423  0.80298762  0.58730013     0.16300
C1214       C  0.86854124  0.82827158  0.55738439    -0.18200
C1215       C  0.84648314  0.77106983  0.57321840    -0.20000
C1216       C  0.83843105  0.74620468  0.60275428    -0.12600
C1217       C  0.84194802  0.75255804  0.64704260     0.04100
C1218       C  0.85273442  0.78431439  0.66158690    -0.24700
H1219       H  0.89482428  0.89226044  0.62605978     0.09200
H1220       H  0.87704581  0.84797996  0.67915716     0.12800
H1221       H  0.86643536  0.82292342  0.52335577     0.12700
H1222       H  0.84400688  0.76547779  0.53928078     0.12500
H1223       H  0.83004716  0.72191402  0.59080516     0.13000
H1224       H  0.85585509  0.78949350  0.69564402     0.15000
C1225       C  0.73723251  0.63115202  0.83895954    -0.05000
C1226       C  0.72016590  0.59880514  0.85494022    -0.05000
C1227       C  0.69274575  0.58732478  0.88105555    -0.23100
C1228       C  0.68167374  0.60788171  0.89193521     0.19100
C1229       C  0.69831454  0.64039482  0.87598703     0.16300
C1230       C  0.72599779  0.65185710  0.84951255    -0.18200
C1231       C  0.68718908  0.66093230  0.88736387    -0.20000
C1232       C  0.66056319  0.64967044  0.91522866    -0.12600
C1233       C  0.64439554  0.61759744  0.93191621     0.04100
C1234       C  0.65470311  0.59662074  0.91939728    -0.24700
H1235       H  0.72805749  0.58215391  0.84740754     0.09200
H1236       H  0.68034300  0.56237936  0.89302663     0.12800
H1237       H  0.73875628  0.67676250  0.83734112     0.12700
H1238       H  0.69944656  0.68586789  0.87541706     0.12500
H1239       H  0.65286121  0.66621205  0.92437287     0.13000
H1240       H  0.64265399  0.57202037  0.93257587     0.15000
loop_ 
_geom_bond_atom_site_label_1 
_geom_bond_atom_site_label_2 
_geom_bond_distance 
_geom_bond_site_symmetry_2 
_ccdc_geom_bond_type 
Zn1           O5   1.908       .  S
Zn1           O6   1.974       .  S
Zn1          O10   1.973       .  S
Zn1          O17   1.965       .  S
Zn2           O5   1.943       .  S
Zn2           O7   2.042       .  S
Zn2           O9   2.040       .  S
Zn2          O13   1.983       .  S
Zn3           O5   1.946       .  S
Zn3           O8   2.049       .  S
Zn3          O11   2.004       .  S
Zn3          O14   2.036       .  S
Zn4           O5   1.963       .  S
Zn4          O12   2.016       .  S
Zn4          O15   2.058       .  S
Zn4          O16   2.061       .  S
O6           C18   1.269       .  A
O7           C19   1.278       .  A
O8           C20   1.276       .  A
O9           C18   1.275       .  A
O10          C20   1.269       .  A
O11          C19   1.274       .  A
O12          C21   1.276       .  A
O13          C22   1.272       .  A
O14          C21   1.279       .  A
O15          C22   1.280       .  A
O16          C23   1.278       .  A
O17          C23   1.269       .  A
C18         C271   1.476       .  S
C19         C239   1.485       .  S
C20         C215   1.476       .  S
C21         C255   1.485       .  S
C22         C295   1.484       .  S
C23         C287   1.477       .  S
C24         C345   1.487       .  S
C24          C25   1.407       .  A
C24         C959   1.408       .  A
C25          C26   1.409       .  A
C25          H30   1.084       .  S
C26         C675   1.488       .  S
C26         C647   1.407       .  A
C27         C646   1.407       .  A
C27         C338   1.404       .  A
C27         H341   1.084       .  S
C28          C44   1.484       .  S
C28          C29   1.404       .  A
C28         C337   1.404       .  A
C29         C954   1.408   1_455  A
C29          H32   1.084   1_556  S
H31         C337   1.084       .  S
C33         C231   1.482       .  S
C33          C34   1.403       .  A
C33          C38   1.401   1_545  A
C34          C35   1.406       .  A
C34          H39   1.084       .  S
C35         C334   1.487       .  S
C35         C346   1.411   1_546  A
C36          C37   1.411       .  A
C36         C345   1.411   1_554  A
C36          H40   1.083       .  S
C37         C207   1.490       .  S
C37         C348   1.404   1_554  A
C38         C347   1.404   1_556  A
C38          H41   1.084       .  S
C42         C183   1.476       .  S
C42          C43   1.405       .  A
C42          C47   1.398       .  A
C43          C44   1.408   1_554  A
C43          H48   1.084       .  S
C44          C45   1.409       .  A
C45          C46   1.407       .  A
C45          H49   1.084       .  S
C46         C303   1.481       .  S
C46          C47   1.398   1_556  A
C47          H50   1.084       .  S
C51         C175   1.482       .  S
C51          C52   1.402   1_554  A
C51          C56   1.403       .  A
C52         C673   1.403   1_455  A
C52          H57   1.084       .  S
C53         C247   1.487       .  S
C53          C54   1.409       .  A
C53         C672   1.403       .  A
C54         C675   1.410       .  A
C54          H58   1.083       .  S
C55         C646   1.488       .  S
C55          C56   1.407   1_556  A
C55         C674   1.410   1_455  A
C56          H59   1.084       .  S
Zn60         O64   1.933       .  S
Zn60         O65   2.025       .  S
Zn60         O69   2.047       .  S
Zn60         O76   2.053       .  S
Zn61         O64   1.926       .  S
Zn61         O66   2.017       .  S
Zn61         O68   2.038       .  S
Zn61         O72   2.042       .  S
Zn62         O64   1.927       .  S
Zn62         O67   1.986       .  S
Zn62         O70   2.030       .  S
Zn62         O73   2.044       .  S
Zn63         O64   1.889       .  S
Zn63         O71   2.006       .  S
Zn63         O74   1.999       .  S
Zn63         O75   2.003       .  S
O65          C77   1.277       .  A
O66          C78   1.275       .  A
O67          C79   1.273       .  A
O68          C77   1.280       .  A
O69          C79   1.280       .  A
O70          C78   1.278       .  A
O71          C80   1.273       .  A
O72          C81   1.278       .  A
O73          C80   1.277       .  A
O74          C81   1.274       .  A
O75          C82   1.274       .  A
O76          C82   1.279       .  A
C77         C199   1.488       .  S
C78         C167   1.484       .  S
C79         C191   1.481       .  S
C80         C119   1.477       .  S
C81         C143   1.473       .  S
C82         C151   1.479       .  S
C83         C404   1.487       .  S
C83          C88   1.408   1_565  A
C83        C1014   1.407   1_455  A
C84          C85   1.407       .  A
C84        C1013   1.407       .  A
C84          H89   1.084       .  S
C85         C114   1.485       .  S
C85          C86   1.404       .  A
C86        C1017   1.406       .  A
C86          H90   1.084       .  S
C87         C725   1.483       .  S
C87          C88   1.406       .  A
C87        C1016   1.406   1_455  A
C88          H91   1.084       .  S
C92         C135   1.477       .  S
C92          C93   1.405       .  A
C92          C97   1.396       .  A
C93          C94   1.411       .  A
C93          H98   1.084       .  S
C94         C393   1.487       .  S
C94         C405   1.412       .  A
C95          C96   1.406       .  A
C95         C404   1.412   1_545  A
C95          H99   1.084       .  S
C96         C263   1.479       .  S
C96         C407   1.397   1_545  A
C97         C406   1.397       .  A
C97         H100   1.085       .  S
C101        C223   1.484       .  S
C101        C102   1.399       .  A
C101        C106   1.404       .  A
C102        C723   1.398       .  A
C102        H107   1.084       .  S
C103        C127   1.484       .  S
C103        C104   1.407       .  A
C103        C722   1.398       .  A
C104        C725   1.412       .  A
C104        H108   1.083       .  S
C105        C707   1.483       .  S
C105        C106   1.410       .  A
C105        C724   1.412       .  A
C106        H109   1.084       .  S
C110        C279   1.479       .  S
C110        C111   1.401       .  A
C110        C115   1.403       .  A
C111        C112   1.400       .  A
C111        H116   1.084       .  S
C112        C159   1.482       .  S
C112        C113   1.408       .  A
C113        C114   1.410       .  A
C113        H117   1.084       .  S
C114        C115   1.407       .  A
C115        H118   1.084       .  S
C119        C120   1.403       .  A
C119        C124   1.408       .  A
C120        C121   1.400       .  A
C120        H129   1.083       .  S
C121        C122   1.405       .  A
C121        H130   1.083       .  S
C122        C128   1.403       .  A
C122        C123   1.412       .  A
C123        C125   1.406       .  A
C123        C124   1.404       .  A
C124        H131   1.084       .  S
C125        C126   1.401       .  A
C125        H132   1.083       .  S
C126        C127   1.402       .  A
C126        H133   1.083       .  S
C127        C128   1.410       .  A
C128        H134   1.084       .  S
C135        C136   1.402       .  A
C135        C140   1.407       .  A
C136        C137   1.400       .  A
C136        H145   1.083       .  S
C137        C138   1.405       .  A
C137        H146   1.084       .  S
C138        C144   1.403       .  A
C138        C139   1.413       .  A
C139        C141   1.404       .  A
C139        C140   1.401       .  A
C140        H147   1.085       .  S
C141        C142   1.398       .  A
C141        H148   1.084       .  S
C142        C143   1.402       .  A
C142        H149   1.083       .  S
C143        C144   1.407       .  A
C144        H150   1.084       .  S
C151        C152   1.404       .  A
C151        C156   1.407       .  A
C152        C153   1.401       .  A
C152        H161   1.083       .  S
C153        C154   1.405       .  A
C153        H162   1.083       .  S
C154        C160   1.406       .  A
C154        C155   1.413       .  A
C155        C157   1.404       .  A
C155        C156   1.405       .  A
C156        H163   1.084       .  S
C157        C158   1.399       .  A
C157        H164   1.083       .  S
C158        C159   1.403       .  A
C158        H165   1.083       .  S
C159        C160   1.408       .  A
C160        H166   1.084       .  S
C167        C168   1.406       .  A
C167        C172   1.411       .  A
C168        C169   1.396       .  A
C168        H177   1.083       .  S
C169        C170   1.401       .  A
C169        H178   1.084       .  S
C170        C176   1.401       .  A
C170        C171   1.413       .  A
C171        C173   1.405       .  A
C171        C172   1.406       .  A
C172        H179   1.084       .  S
C173        C174   1.400       .  A
C173        H180   1.084       .  S
C174        C175   1.405       .  A
C174        H181   1.083       .  S
C175        C176   1.405       .  A
C176        H182   1.085       .  S
C183        C184   1.406       .  A
C183        C188   1.401       .  A
C184        C185   1.396       .  A
C184        H193   1.083       .  S
C185        C186   1.400       .  A
C185        H194   1.084       .  S
C186        C192   1.405       .  A
C186        C187   1.416       .  A
C187        C189   1.398       .  A
C187        C188   1.403       .  A
C188        H195   1.084       .  S
C189        C190   1.394       .  A
C189        H196   1.084       .  S
C190        C191   1.409       .  A
C190        H197   1.083       .  S
C191        C192   1.404       .  A
C192        H198   1.084       .  S
C199        C200   1.406       .  A
C199        C204   1.411       .  A
C200        C201   1.398       .  A
C200        H209   1.083       .  S
C201        C202   1.402       .  A
C201        H210   1.084       .  S
C202        C208   1.405       .  A
C202        C203   1.412       .  A
C203        C205   1.405       .  A
C203        C204   1.407       .  A
C204        H211   1.084       .  S
C205        C206   1.401       .  A
C205        H212   1.084       .  S
C206        C207   1.405       .  A
C206        H213   1.083       .  S
C207        C208   1.410       .  A
C208        H214   1.085       .  S
C215        C216   1.405       .  A
C215        C220   1.409       .  A
C216        C217   1.390       .  A
C216        H225   1.083       .  S
C217        C218   1.398       .  A
C217        H226   1.084       .  S
C218        C224   1.396       .  A
C218        C219   1.414       .  A
C219        C221   1.406       .  A
C219        C220   1.409       .  A
C220        H227   1.084       .  S
C221        C222   1.404       .  A
C221        H228   1.084       .  S
C222        C223   1.405       .  A
C222        H229   1.083       .  S
C223        C224   1.404       .  A
C224        H230   1.085       .  S
C231        C232   1.404       .  A
C231        C236   1.407       .  A
C232        C233   1.397       .  A
C232        H241   1.083       .  S
C233        C234   1.403       .  A
C233        H242   1.084       .  S
C234        C240   1.402       .  A
C234        C235   1.412       .  A
C235        C237   1.403       .  A
C235        C236   1.404       .  A
C236        H243   1.085   1_545  S
C237        C238   1.400       .  A
C237        H244   1.084       .  S
C238        C239   1.406       .  A
C238        H245   1.083       .  S
C239        C240   1.409       .  A
C240        H246   1.084       .  S
C247        C248   1.405       .  A
C247        C252   1.409       .  A
C248        C249   1.399       .  A
C248        H257   1.083       .  S
C249        C250   1.403       .  A
C249        H258   1.084       .  S
C250        C256   1.405       .  A
C250        C251   1.412       .  A
C251        C253   1.403       .  A
C251        C252   1.404       .  A
C252        H259   1.085       .  S
C253        C254   1.398       .  A
C253        H260   1.084       .  S
C254        C255   1.406       .  A
C254        H261   1.083       .  S
C255        C256   1.410       .  A
C256        H262   1.084       .  S
C263        C264   1.403       .  A
C263        C268   1.404       .  A
C264        C265   1.402       .  A
C264        H583   1.083       .  S
C265        C266   1.405       .  A
C265        H274   1.083       .  S
C266        C272   1.407       .  A
C266        C267   1.414       .  A
C267        C269   1.399       .  A
C267        C268   1.398       .  A
C268        H275   1.085       .  S
C269        C270   1.392       .  A
C269        H276   1.084       .  S
C270        C271   1.406       .  A
C270        H277   1.083       .  S
C271        C272   1.407       .  A
C272        H278   1.084       .  S
H273        C574   1.083       .  S
C279        C280   1.405       .  A
C279        C284   1.401       .  A
C280        C281   1.402       .  A
C280        H289   1.083       .  S
C281        C282   1.405       .  A
C281        H290   1.083       .  S
C282        C288   1.410       .  A
C282        C283   1.416       .  A
C283        C285   1.397       .  A
C283        C284   1.399       .  A
C284        H291   1.085       .  S
C285        C286   1.390       .  A
C285        H292   1.084       .  S
C286        C287   1.406       .  A
C286        H293   1.084       .  S
C287        C288   1.407       .  A
C288        H294   1.084       .  S
C295        C296   1.410       .  A
C295        C300   1.407       .  A
C296        C297   1.392       .  A
C296        H305   1.083       .  S
C297        C298   1.396       .  A
C297        H306   1.084       .  S
C298        C304   1.402       .  A
C298        C299   1.416       .  A
C299        C301   1.401       .  A
C299        C300   1.408       .  A
C300        H307   1.084       .  S
C301        C302   1.398       .  A
C301        H308   1.084       .  S
C302        C303   1.408       .  A
C302        H309   1.083       .  S
C303        C304   1.401       .  A
C304        H310   1.085       .  S
Zn311       O315   1.908       .  S
Zn311       O316   1.974       .  S
Zn311       O320   1.973       .  S
Zn311       O327   1.965       .  S
Zn312       O315   1.943       .  S
Zn312       O317   2.041       .  S
Zn312       O319   2.040       .  S
Zn312       O323   1.983       .  S
Zn313       O315   1.946       .  S
Zn313       O318   2.049       .  S
Zn313       O321   2.004       .  S
Zn313       O324   2.036       .  S
Zn314       O315   1.963       .  S
Zn314       O322   2.016       .  S
Zn314       O325   2.058       .  S
Zn314       O326   2.061       .  S
O316        C328   1.269       .  A
O317        C329   1.278       .  A
O318        C330   1.276       .  A
O319        C328   1.275       .  A
O320        C330   1.269       .  A
O321        C329   1.274       .  A
O322        C331   1.276       .  A
O323        C332   1.272       .  A
O324        C331   1.279       .  A
O325        C332   1.280       .  A
O326        C333   1.278       .  A
O327        C333   1.269       .  A
C328        C581   1.476       .  S
C329        C549   1.485       .  S
C330        C525   1.476       .  S
C331        C565   1.485       .  S
C332        C605   1.484       .  S
C333        C597   1.477       .  S
C334        C335   1.407   1_545  A
C334        C649   1.408       .  A
C335        C336   1.409       .  A
C335        H340   1.084       .  S
C336        C985   1.488       .  S
C336        C957   1.407   1_565  A
C337        C956   1.407   1_545  A
C338        C354   1.484       .  S
C338        C339   1.404       .  A
C339        C644   1.408   1_455  A
C339        H342   1.084   1_556  S
C343        C541   1.482       .  S
C343        C344   1.402       .  A
C343        C348   1.401       .  A
C344        C345   1.406       .  A
C344        H349   1.084       .  S
C346        C347   1.411       .  A
C346        H350   1.083       .  S
C347        C517   1.490       .  S
C348        H351   1.084       .  S
C352        C493   1.476       .  S
C352        C353   1.405       .  A
C352        C357   1.398       .  A
C353        C354   1.409   1_554  A
C353        H358   1.084       .  S
C354        C355   1.409       .  A
C355        C356   1.407       .  A
C355        H359   1.084       .  S
C356        C613   1.481       .  S
C356        C357   1.398   1_556  A
C357        H360   1.084       .  S
C361        C485   1.482       .  S
C361        C362   1.402   1_554  A
C361        C366   1.403       .  A
C362        C983   1.403   1_455  A
C362        H367   1.084       .  S
C363        C557   1.487       .  S
C363        C982   1.403       .  A
C363        C364   1.409       .  A
C364        C985   1.410       .  A
C364        H368   1.083       .  S
C365        C956   1.488       .  S
C365        C984   1.410   1_455  A
C365        C366   1.407   1_556  A
C366        H369   1.084       .  S
Zn370       O374   1.934       .  S
Zn370       O375   2.025       .  S
Zn370       O379   2.048       .  S
Zn370       O386   2.053       .  S
Zn371       O374   1.926       .  S
Zn371       O376   2.017       .  S
Zn371       O378   2.038       .  S
Zn371       O382   2.041       .  S
Zn372       O374   1.927       .  S
Zn372       O377   1.986       .  S
Zn372       O380   2.029       .  S
Zn372       O383   2.044       .  S
Zn373       O374   1.889       .  S
Zn373       O381   2.005       .  S
Zn373       O384   1.999       .  S
Zn373       O385   2.003       .  S
O375        C387   1.277       .  A
O376        C388   1.275       .  A
O377        C389   1.273       .  A
O378        C387   1.280       .  A
O379        C389   1.280       .  A
O380        C388   1.278       .  A
O381        C390   1.273       .  A
O382        C391   1.278       .  A
O383        C390   1.277       .  A
O384        C391   1.274       .  A
O385        C392   1.274       .  A
O386        C392   1.279       .  A
C387        C509   1.489       .  S
C388        C477   1.484       .  S
C389        C501   1.481       .  S
C390        C429   1.477       .  S
C391        C453   1.473       .  S
C392        C461   1.479       .  S
C393        C704   1.407   1_455  A
C393        C398   1.408       .  A
C394        C703   1.407       .  A
C394        C395   1.407       .  A
C394        H399   1.084       .  S
C395        C424   1.486       .  S
C395        C396   1.404   1_565  A
C396        C707   1.406       .  A
C396        H400   1.084       .  S
C397       C1035   1.483       .  S
C397        C706   1.406   1_455  A
C397        C398   1.406       .  A
C398        H401   1.084       .  S
C402        C445   1.477       .  S
C402        C403   1.405       .  A
C402        C407   1.396       .  A
C403        C404   1.411       .  A
C403        H408   1.084       .  S
C405        C406   1.406       .  A
C405        H409   1.084       .  S
C406        C573   1.479       .  S
C407        H410   1.085       .  S
C411        C533   1.484       .  S
C411        C412   1.399       .  A
C411        C416   1.404       .  A
C412       C1033   1.398       .  A
C412        H417   1.084       .  S
C413        C437   1.483       .  S
C413       C1032   1.398       .  A
C413        C414   1.407       .  A
C414       C1035   1.412       .  A
C414        H418   1.083       .  S
C415       C1017   1.483       .  S
C415       C1034   1.412       .  A
C415        C416   1.410       .  A
C416        H419   1.084       .  S
C420        C589   1.479       .  S
C420        C421   1.401       .  A
C420        C425   1.403       .  A
C421        C422   1.400       .  A
C421        H426   1.084       .  S
C422        C469   1.482       .  S
C422        C423   1.408       .  A
C423        C424   1.411       .  A
C423        H427   1.084       .  S
C424        C425   1.407       .  A
C425        H428   1.084       .  S
C429        C430   1.403       .  A
C429        C434   1.408       .  A
C430        C431   1.400       .  A
C430        H439   1.083       .  S
C431        C432   1.405       .  A
C431        H440   1.083       .  S
C432        C438   1.403       .  A
C432        C433   1.412       .  A
C433        C435   1.406       .  A
C433        C434   1.404       .  A
C434        H441   1.084       .  S
C435        C436   1.401       .  A
C435        H442   1.083       .  S
C436        C437   1.402       .  A
C436        H443   1.083       .  S
C437        C438   1.410       .  A
C438        H444   1.084       .  S
C445        C446   1.402       .  A
C445        C450   1.407       .  A
C446        C447   1.400       .  A
C446        H455   1.083       .  S
C447        C448   1.405       .  A
C447        H456   1.084       .  S
C448        C454   1.403       .  A
C448        C449   1.413       .  A
C449        C451   1.404       .  A
C449        C450   1.401       .  A
C450        H457   1.085       .  S
C451        C452   1.398       .  A
C451        H458   1.084       .  S
C452        C453   1.402       .  A
C452        H459   1.083       .  S
C453        C454   1.407       .  A
C454        H460   1.084       .  S
C461        C462   1.404       .  A
C461        C466   1.407       .  A
C462        C463   1.401       .  A
C462        H471   1.083       .  S
C463        C464   1.405       .  A
C463        H472   1.083       .  S
C464        C470   1.406       .  A
C464        C465   1.413       .  A
C465        C467   1.404       .  A
C465        C466   1.405       .  A
C466        H473   1.084       .  S
C467        C468   1.399       .  A
C467        H474   1.083       .  S
C468        C469   1.403       .  A
C468        H475   1.083       .  S
C469        C470   1.408       .  A
C470        H476   1.084       .  S
C477        C478   1.406       .  A
C477        C482   1.411       .  A
C478        C479   1.396       .  A
C478        H487   1.083       .  S
C479        C480   1.401       .  A
C479        H488   1.084       .  S
C480        C486   1.401       .  A
C480        C481   1.413       .  A
C481        C483   1.405       .  A
C481        C482   1.405       .  A
C482        H489   1.084       .  S
C483        C484   1.400       .  A
C483        H490   1.084       .  S
C484        C485   1.405       .  A
C484        H491   1.083       .  S
C485        C486   1.405       .  A
C486        H492   1.085       .  S
C493        C494   1.406       .  A
C493        C498   1.401       .  A
C494        C495   1.396       .  A
C494        H503   1.083       .  S
C495        C496   1.400       .  A
C495        H504   1.084       .  S
C496        C502   1.405       .  A
C496        C497   1.416       .  A
C497        C499   1.398       .  A
C497        C498   1.403       .  A
C498        H505   1.084       .  S
C499        C500   1.394       .  A
C499        H506   1.084       .  S
C500        C501   1.409       .  A
C500        H507   1.083       .  S
C501        C502   1.404       .  A
C502        H508   1.084       .  S
C509        C510   1.406       .  A
C509        C514   1.411       .  A
C510        C511   1.398       .  A
C510        H519   1.083       .  S
C511        C512   1.402       .  A
C511        H520   1.084       .  S
C512        C518   1.405       .  A
C512        C513   1.412       .  A
C513        C515   1.405       .  A
C513        C514   1.407       .  A
C514        H521   1.084       .  S
C515        C516   1.401       .  A
C515        H522   1.084       .  S
C516        C517   1.405       .  A
C516        H523   1.083       .  S
C517        C518   1.410       .  A
C518        H524   1.085       .  S
C525        C526   1.405       .  A
C525        C530   1.409       .  A
C526        C527   1.390       .  A
C526        H535   1.083       .  S
C527        C528   1.398       .  A
C527        H536   1.084       .  S
C528        C534   1.396       .  A
C528        C529   1.414       .  A
C529        C531   1.406       .  A
C529        C530   1.409       .  A
C530        H537   1.084       .  S
C531        C532   1.404       .  A
C531        H538   1.084       .  S
C532        C533   1.405       .  A
C532        H539   1.083       .  S
C533        C534   1.404       .  A
C534        H540   1.085       .  S
C541        C542   1.404       .  A
C541        C546   1.407       .  A
C542        C543   1.397       .  A
C542        H551   1.083       .  S
C543        C544   1.403       .  A
C543        H552   1.084       .  S
C544        C550   1.402       .  A
C544        C545   1.412       .  A
C545        C547   1.403       .  A
C545        C546   1.404       .  A
C546        H553   1.085       .  S
C547        C548   1.400       .  A
C547        H554   1.084       .  S
C548        C549   1.406       .  A
C548        H555   1.083       .  S
C549        C550   1.409       .  A
C550        H556   1.084       .  S
C557        C558   1.405       .  A
C557        C562   1.409       .  A
C558        C559   1.399       .  A
C558        H567   1.083       .  S
C559        C560   1.403       .  A
C559        H568   1.084       .  S
C560        C566   1.405       .  A
C560        C561   1.412       .  A
C561        C563   1.403       .  A
C561        C562   1.404       .  A
C562        H569   1.085       .  S
C563        C564   1.398       .  A
C563        H570   1.084       .  S
C564        C565   1.406       .  A
C564        H571   1.083       .  S
C565        C566   1.410       .  A
C566        H572   1.084       .  S
C573        C574   1.403       .  A
C573        C578   1.404       .  A
C574        C575   1.402       .  A
C575        C576   1.405       .  A
C575        H584   1.083       .  S
C576        C582   1.407       .  A
C576        C577   1.414       .  A
C577        C579   1.399       .  A
C577        C578   1.398       .  A
C578        H585   1.085       .  S
C579        C580   1.392       .  A
C579        H586   1.084       .  S
C580        C581   1.406       .  A
C580        H587   1.083       .  S
C581        C582   1.407       .  A
C582        H588   1.084       .  S
C589        C590   1.405       .  A
C589        C594   1.401       .  A
C590        C591   1.402       .  A
C590        H599   1.083       .  S
C591        C592   1.405       .  A
C591        H600   1.083       .  S
C592        C598   1.410       .  A
C592        C593   1.416       .  A
C593        C595   1.397       .  A
C593        C594   1.399       .  A
C594        H601   1.085       .  S
C595        C596   1.390       .  A
C595        H602   1.084       .  S
C596        C597   1.406       .  A
C596        H603   1.084       .  S
C597        C598   1.407       .  A
C598        H604   1.084       .  S
C605        C606   1.410       .  A
C605        C610   1.407       .  A
C606        C607   1.392       .  A
C606        H615   1.083       .  S
C607        C608   1.396       .  A
C607        H616   1.084       .  S
C608        C614   1.402       .  A
C608        C609   1.416       .  A
C609        C611   1.401       .  A
C609        C610   1.408       .  A
C610        H617   1.084       .  S
C611        C612   1.398       .  A
C611        H618   1.084       .  S
C612        C613   1.408       .  A
C612        H619   1.083       .  S
C613        C614   1.401       .  A
C614        H620   1.085       .  S
Zn621       O625   1.908       .  S
Zn621       O626   1.974       .  S
Zn621       O630   1.973       .  S
Zn621       O637   1.965       .  S
Zn622       O625   1.943       .  S
Zn622       O627   2.042       .  S
Zn622       O629   2.040       .  S
Zn622       O633   1.983       .  S
Zn623       O625   1.946       .  S
Zn623       O628   2.049       .  S
Zn623       O631   2.004       .  S
Zn623       O634   2.036       .  S
Zn624       O625   1.963       .  S
Zn624       O632   2.016       .  S
Zn624       O635   2.058       .  S
Zn624       O636   2.062       .  S
O626        C638   1.269       .  A
O627        C639   1.278       .  A
O628        C640   1.276       .  A
O629        C638   1.275       .  A
O630        C640   1.269       .  A
O631        C639   1.274       .  A
O632        C641   1.276       .  A
O633        C642   1.272       .  A
O634        C641   1.279       .  A
O635        C642   1.280       .  A
O636        C643   1.278       .  A
O637        C643   1.269       .  A
C638        C891   1.476       .  S
C639        C859   1.485       .  S
C640        C835   1.476       .  S
C641        C875   1.485       .  S
C642        C915   1.484       .  S
C643        C907   1.477       .  S
C644        C965   1.487       .  S
C644        C645   1.407       .  A
C645        C646   1.409   1_655  A
C645        H650   1.084       .  S
C647        C958   1.404       .  A
C647        H961   1.084       .  S
C648        C664   1.484       .  S
C648        C957   1.404       .  A
C648        C649   1.404       .  A
C649        H652   1.084   1_556  S
H651        C957   1.084       .  S
C653        C851   1.482       .  S
C653        C654   1.403       .  A
C653        C658   1.401   1_545  A
C654        C655   1.406       .  A
C654        H659   1.084       .  S
C655        C954   1.487       .  S
C655        C966   1.411   1_546  A
C656        C965   1.411   1_554  A
C656        C657   1.411       .  A
C656        H660   1.083       .  S
C657        C827   1.490       .  S
C657        C968   1.404   1_554  A
C658        C967   1.404   1_556  A
C658        H661   1.084       .  S
C662        C803   1.476       .  S
C662        C663   1.405       .  A
C662        C667   1.398       .  A
C663        C664   1.408   1_554  A
C663        H668   1.084       .  S
C664        C665   1.409       .  A
C665        C666   1.407       .  A
C665        H669   1.084       .  S
C666        C923   1.481       .  S
C666        C667   1.398   1_556  A
C667        H670   1.084       .  S
C671        C795   1.482       .  S
C671        C672   1.402   1_554  A
C671        C676   1.403       .  A
C672        H677   1.084       .  S
C673        C867   1.487       .  S
C673        C674   1.409       .  A
C674        H678   1.083       .  S
C675        C676   1.407   1_556  A
C676        H679   1.084       .  S
Zn680       O684   1.933       .  S
Zn680       O685   2.025       .  S
Zn680       O689   2.047       .  S
Zn680       O696   2.053       .  S
Zn681       O684   1.926       .  S
Zn681       O686   2.017       .  S
Zn681       O688   2.038       .  S
Zn681       O692   2.042       .  S
Zn682       O684   1.927       .  S
Zn682       O687   1.986       .  S
Zn682       O690   2.030       .  S
Zn682       O693   2.044       .  S
Zn683       O684   1.889       .  S
Zn683       O691   2.006       .  S
Zn683       O694   1.999       .  S
Zn683       O695   2.003       .  S
O685        C697   1.277       .  A
O686        C698   1.275       .  A
O687        C699   1.273       .  A
O688        C697   1.280       .  A
O689        C699   1.280       .  A
O690        C698   1.278       .  A
O691        C700   1.273       .  A
O692        C701   1.278       .  A
O693        C700   1.277       .  A
O694        C701   1.274       .  A
O695        C702   1.274       .  A
O696        C702   1.279       .  A
C697        C819   1.488       .  S
C698        C787   1.484       .  S
C699        C811   1.481       .  S
C700        C739   1.477       .  S
C701        C763   1.473       .  S
C702        C771   1.479       .  S
C703       C1024   1.487       .  S
C703        C708   1.408   1_565  A
C704        C705   1.407       .  A
C704        H709   1.084       .  S
C705        C734   1.485       .  S
C705        C706   1.404       .  A
C706        H710   1.084       .  S
C707        C708   1.406       .  A
C708        H711   1.084       .  S
C712        C755   1.477       .  S
C712        C713   1.405       .  A
C712        C717   1.396       .  A
C713        C714   1.411       .  A
C713        H718   1.084       .  S
C714       C1013   1.487       .  S
C714       C1025   1.412       .  A
C715       C1024   1.412   1_545  A
C715        C716   1.406       .  A
C715        H719   1.084       .  S
C716        C883   1.479       .  S
C716       C1027   1.397   1_545  A
C717       C1026   1.397       .  A
C717        H720   1.085       .  S
C721        C843   1.484       .  S
C721        C722   1.399   1_655  A
C721        C726   1.404       .  A
C722        H727   1.084       .  S
C723        C747   1.484       .  S
C723        C724   1.407       .  A
C724        H728   1.083       .  S
C725        C726   1.410   1_455  A
C726        H729   1.084       .  S
C730        C899   1.479       .  S
C730        C731   1.401       .  A
C730        C735   1.403       .  A
C731        C732   1.400       .  A
C731        H736   1.084       .  S
C732        C779   1.482       .  S
C732        C733   1.408       .  A
C733        C734   1.410       .  A
C733        H737   1.084       .  S
C734        C735   1.407       .  A
C735        H738   1.084       .  S
C739        C740   1.403       .  A
C739        C744   1.408       .  A
C740        C741   1.400       .  A
C740        H749   1.083       .  S
C741        C742   1.405       .  A
C741        H750   1.083       .  S
C742        C748   1.403       .  A
C742        C743   1.412       .  A
C743        C745   1.406       .  A
C743        C744   1.404       .  A
C744        H751   1.084       .  S
C745        C746   1.401       .  A
C745        H752   1.083       .  S
C746        C747   1.402       .  A
C746        H753   1.083       .  S
C747        C748   1.410       .  A
C748        H754   1.084       .  S
C755        C756   1.402       .  A
C755        C760   1.407       .  A
C756        C757   1.400       .  A
C756        H765   1.083       .  S
C757        C758   1.405       .  A
C757        H766   1.084       .  S
C758        C764   1.403       .  A
C758        C759   1.413       .  A
C759        C761   1.404       .  A
C759        C760   1.401       .  A
C760        H767   1.085       .  S
C761        C762   1.398       .  A
C761        H768   1.084       .  S
C762        C763   1.402       .  A
C762        H769   1.083       .  S
C763        C764   1.407       .  A
C764        H770   1.084       .  S
C771        C772   1.404       .  A
C771        C776   1.407       .  A
C772        C773   1.401       .  A
C772        H781   1.083       .  S
C773        C774   1.405       .  A
C773        H782   1.083       .  S
C774        C780   1.406       .  A
C774        C775   1.413       .  A
C775        C777   1.404       .  A
C775        C776   1.405       .  A
C776        H783   1.084       .  S
C777        C778   1.399       .  A
C777        H784   1.083       .  S
C778        C779   1.403       .  A
C778        H785   1.083       .  S
C779        C780   1.408       .  A
C780        H786   1.084       .  S
C787        C788   1.406       .  A
C787        C792   1.411       .  A
C788        C789   1.396       .  A
C788        H797   1.083       .  S
C789        C790   1.401       .  A
C789        H798   1.084       .  S
C790        C796   1.401       .  A
C790        C791   1.413       .  A
C791        C793   1.405       .  A
C791        C792   1.406       .  A
C792        H799   1.084       .  S
C793        C794   1.400       .  A
C793        H800   1.084       .  S
C794        C795   1.405       .  A
C794        H801   1.083       .  S
C795        C796   1.405       .  A
C796        H802   1.085       .  S
C803        C804   1.406       .  A
C803        C808   1.401       .  A
C804        C805   1.396       .  A
C804        H813   1.083       .  S
C805        C806   1.400       .  A
C805        H814   1.084       .  S
C806        C812   1.405       .  A
C806        C807   1.416       .  A
C807        C809   1.398       .  A
C807        C808   1.403       .  A
C808        H815   1.084       .  S
C809        C810   1.394       .  A
C809        H816   1.084       .  S
C810        C811   1.409       .  A
C810        H817   1.083       .  S
C811        C812   1.404       .  A
C812        H818   1.084       .  S
C819        C820   1.406       .  A
C819        C824   1.411       .  A
C820        C821   1.398       .  A
C820        H829   1.083       .  S
C821        C822   1.402       .  A
C821        H830   1.084       .  S
C822        C828   1.405       .  A
C822        C823   1.412       .  A
C823        C825   1.405       .  A
C823        C824   1.407       .  A
C824        H831   1.084       .  S
C825        C826   1.401       .  A
C825        H832   1.084       .  S
C826        C827   1.405       .  A
C826        H833   1.083       .  S
C827        C828   1.410       .  A
C828        H834   1.085       .  S
C835        C836   1.405       .  A
C835        C840   1.409       .  A
C836        C837   1.390       .  A
C836        H845   1.083       .  S
C837        C838   1.398       .  A
C837        H846   1.084       .  S
C838        C844   1.396       .  A
C838        C839   1.414       .  A
C839        C841   1.406       .  A
C839        C840   1.409       .  A
C840        H847   1.084       .  S
C841        C842   1.404       .  A
C841        H848   1.084       .  S
C842        C843   1.405       .  A
C842        H849   1.083       .  S
C843        C844   1.404       .  A
C844        H850   1.085       .  S
C851        C852   1.404       .  A
C851        C856   1.407       .  A
C852        C853   1.397       .  A
C852        H861   1.083       .  S
C853        C854   1.403       .  A
C853        H862   1.084       .  S
C854        C860   1.402       .  A
C854        C855   1.412       .  A
C855        C857   1.403       .  A
C855        C856   1.404       .  A
C856        H863   1.085   1_545  S
C857        C858   1.400       .  A
C857        H864   1.084       .  S
C858        C859   1.406       .  A
C858        H865   1.083       .  S
C859        C860   1.409       .  A
C860        H866   1.084       .  S
C867        C868   1.405       .  A
C867        C872   1.409       .  A
C868        C869   1.399       .  A
C868        H877   1.083       .  S
C869        C870   1.403       .  A
C869        H878   1.084       .  S
C870        C876   1.405       .  A
C870        C871   1.412       .  A
C871        C873   1.403       .  A
C871        C872   1.404       .  A
C872        H879   1.085   1_655  S
C873        C874   1.398       .  A
C873        H880   1.084       .  S
C874        C875   1.406       .  A
C874        H881   1.083       .  S
C875        C876   1.410       .  A
C876        H882   1.084       .  S
C883        C884   1.403       .  A
C883        C888   1.404       .  A
C884        C885   1.402       .  A
C884       H1203   1.083       .  S
C885        C886   1.405       .  A
C885        H894   1.083       .  S
C886        C892   1.407       .  A
C886        C887   1.414       .  A
C887        C889   1.399       .  A
C887        C888   1.398       .  A
C888        H895   1.085       .  S
C889        C890   1.392       .  A
C889        H896   1.084       .  S
C890        C891   1.406       .  A
C890        H897   1.083       .  S
C891        C892   1.407       .  A
C892        H898   1.084       .  S
H893       C1194   1.083       .  S
C899        C900   1.405       .  A
C899        C904   1.401       .  A
C900        C901   1.402       .  A
C900        H909   1.083       .  S
C901        C902   1.405       .  A
C901        H910   1.083       .  S
C902        C908   1.410       .  A
C902        C903   1.416       .  A
C903        C905   1.397       .  A
C903        C904   1.399       .  A
C904        H911   1.085       .  S
C905        C906   1.390       .  A
C905        H912   1.084       .  S
C906        C907   1.406       .  A
C906        H913   1.084       .  S
C907        C908   1.407       .  A
C908        H914   1.084       .  S
C915        C916   1.410       .  A
C915        C920   1.407       .  A
C916        C917   1.392       .  A
C916        H925   1.083       .  S
C917        C918   1.396       .  A
C917        H926   1.084       .  S
C918        C924   1.402       .  A
C918        C919   1.416       .  A
C919        C921   1.401       .  A
C919        C920   1.408       .  A
C920        H927   1.084       .  S
C921        C922   1.398       .  A
C921        H928   1.084       .  S
C922        C923   1.408       .  A
C922        H929   1.083       .  S
C923        C924   1.401       .  A
C924        H930   1.085       .  S
Zn931       O935   1.908       .  S
Zn931       O936   1.974       .  S
Zn931       O940   1.973       .  S
Zn931       O947   1.965       .  S
Zn932       O935   1.943       .  S
Zn932       O937   2.041       .  S
Zn932       O939   2.040       .  S
Zn932       O943   1.983       .  S
Zn933       O935   1.946       .  S
Zn933       O938   2.049       .  S
Zn933       O941   2.004       .  S
Zn933       O944   2.036       .  S
Zn934       O935   1.963       .  S
Zn934       O942   2.016       .  S
Zn934       O945   2.058       .  S
Zn934       O946   2.061       .  S
O936        C948   1.269       .  A
O937        C949   1.278       .  A
O938        C950   1.276       .  A
O939        C948   1.275       .  A
O940        C950   1.269       .  A
O941        C949   1.274       .  A
O942        C951   1.276       .  A
O943        C952   1.272       .  A
O944        C951   1.279       .  A
O945        C952   1.280       .  A
O946        C953   1.278       .  A
O947        C953   1.269       .  A
C948       C1201   1.476       .  S
C949       C1169   1.485       .  S
C950       C1145   1.476       .  S
C951       C1185   1.485       .  S
C952       C1225   1.484       .  S
C953       C1217   1.477       .  S
C954        C955   1.407   1_545  A
C955        C956   1.409   1_655  A
C955        H960   1.084       .  S
C958        C974   1.484       .  S
C958        C959   1.404       .  A
C959        H962   1.084   1_556  S
C963       C1161   1.482       .  S
C963        C964   1.402       .  A
C963        C968   1.401       .  A
C964        C965   1.406       .  A
C964        H969   1.084       .  S
C966        C967   1.411       .  A
C966        H970   1.083       .  S
C967       C1137   1.490       .  S
C968        H971   1.084       .  S
C972       C1113   1.476       .  S
C972        C973   1.405       .  A
C972        C977   1.398       .  A
C973        C974   1.409   1_554  A
C973        H978   1.084       .  S
C974        C975   1.409       .  A
C975        C976   1.407       .  A
C975        H979   1.084       .  S
C976       C1233   1.481       .  S
C976        C977   1.398   1_556  A
C977        H980   1.084       .  S
C981       C1105   1.482       .  S
C981        C982   1.402   1_554  A
C981        C986   1.403       .  A
C982        H987   1.084       .  S
C983       C1177   1.487       .  S
C983        C984   1.409       .  A
C984        H988   1.083       .  S
C985        C986   1.407   1_556  A
C986        H989   1.084       .  S
Zn990       O994   1.934       .  S
Zn990       O995   2.025       .  S
Zn990       O999   2.048       .  S
Zn990      O1006   2.053       .  S
Zn991       O994   1.926       .  S
Zn991       O996   2.017       .  S
Zn991       O998   2.038       .  S
Zn991      O1002   2.041       .  S
Zn992       O994   1.927       .  S
Zn992       O997   1.986       .  S
Zn992      O1000   2.029       .  S
Zn992      O1003   2.044       .  S
Zn993       O994   1.889       .  S
Zn993      O1001   2.005       .  S
Zn993      O1004   1.999       .  S
Zn993      O1005   2.003       .  S
O995       C1007   1.277       .  A
O996       C1008   1.275       .  A
O997       C1009   1.273       .  A
O998       C1007   1.280       .  A
O999       C1009   1.280       .  A
O1000      C1008   1.278       .  A
O1001      C1010   1.273       .  A
O1002      C1011   1.278       .  A
O1003      C1010   1.277       .  A
O1004      C1011   1.274       .  A
O1005      C1012   1.274       .  A
O1006      C1012   1.279       .  A
C1007      C1129   1.489       .  S
C1008      C1097   1.484       .  S
C1009      C1121   1.481       .  S
C1010      C1049   1.477       .  S
C1011      C1073   1.473       .  S
C1012      C1081   1.479       .  S
C1013      C1018   1.408       .  A
C1014      C1015   1.407       .  A
C1014      H1019   1.084       .  S
C1015      C1044   1.486       .  S
C1015      C1016   1.404   1_565  A
C1016      H1020   1.084       .  S
C1017      C1018   1.406       .  A
C1018      H1021   1.084       .  S
C1022      C1065   1.477       .  S
C1022      C1023   1.405       .  A
C1022      C1027   1.396       .  A
C1023      C1024   1.411       .  A
C1023      H1028   1.084       .  S
C1025      C1026   1.406       .  A
C1025      H1029   1.084       .  S
C1026      C1193   1.479       .  S
C1027      H1030   1.085       .  S
C1031      C1153   1.484       .  S
C1031      C1032   1.399   1_655  A
C1031      C1036   1.404       .  A
C1032      H1037   1.084       .  S
C1033      C1057   1.483       .  S
C1033      C1034   1.407       .  A
C1034      H1038   1.083       .  S
C1035      C1036   1.410   1_455  A
C1036      H1039   1.084       .  S
C1040      C1209   1.479       .  S
C1040      C1041   1.401       .  A
C1040      C1045   1.403       .  A
C1041      C1042   1.400       .  A
C1041      H1046   1.084       .  S
C1042      C1089   1.482       .  S
C1042      C1043   1.408       .  A
C1043      C1044   1.411       .  A
C1043      H1047   1.084       .  S
C1044      C1045   1.407       .  A
C1045      H1048   1.084       .  S
C1049      C1050   1.403       .  A
C1049      C1054   1.408       .  A
C1050      C1051   1.400       .  A
C1050      H1059   1.083       .  S
C1051      C1052   1.405       .  A
C1051      H1060   1.083       .  S
C1052      C1058   1.403       .  A
C1052      C1053   1.412       .  A
C1053      C1055   1.406       .  A
C1053      C1054   1.404       .  A
C1054      H1061   1.084       .  S
C1055      C1056   1.401       .  A
C1055      H1062   1.083       .  S
C1056      C1057   1.402       .  A
C1056      H1063   1.083       .  S
C1057      C1058   1.410       .  A
C1058      H1064   1.084       .  S
C1065      C1066   1.402       .  A
C1065      C1070   1.407       .  A
C1066      C1067   1.400       .  A
C1066      H1075   1.083       .  S
C1067      C1068   1.405       .  A
C1067      H1076   1.084       .  S
C1068      C1074   1.403       .  A
C1068      C1069   1.413       .  A
C1069      C1071   1.404       .  A
C1069      C1070   1.401       .  A
C1070      H1077   1.085       .  S
C1071      C1072   1.398       .  A
C1071      H1078   1.084       .  S
C1072      C1073   1.402       .  A
C1072      H1079   1.083       .  S
C1073      C1074   1.407       .  A
C1074      H1080   1.084       .  S
C1081      C1082   1.404       .  A
C1081      C1086   1.407       .  A
C1082      C1083   1.401       .  A
C1082      H1091   1.083       .  S
C1083      C1084   1.405       .  A
C1083      H1092   1.083       .  S
C1084      C1090   1.406       .  A
C1084      C1085   1.413       .  A
C1085      C1087   1.404       .  A
C1085      C1086   1.405       .  A
C1086      H1093   1.084       .  S
C1087      C1088   1.399       .  A
C1087      H1094   1.083       .  S
C1088      C1089   1.403       .  A
C1088      H1095   1.083       .  S
C1089      C1090   1.408       .  A
C1090      H1096   1.084       .  S
C1097      C1098   1.406       .  A
C1097      C1102   1.411       .  A
C1098      C1099   1.396       .  A
C1098      H1107   1.083       .  S
C1099      C1100   1.401       .  A
C1099      H1108   1.084       .  S
C1100      C1106   1.401       .  A
C1100      C1101   1.413       .  A
C1101      C1103   1.405       .  A
C1101      C1102   1.406       .  A
C1102      H1109   1.084       .  S
C1103      C1104   1.400       .  A
C1103      H1110   1.084       .  S
C1104      C1105   1.405       .  A
C1104      H1111   1.083       .  S
C1105      C1106   1.405       .  A
C1106      H1112   1.085       .  S
C1113      C1114   1.406       .  A
C1113      C1118   1.401       .  A
C1114      C1115   1.396       .  A
C1114      H1123   1.083       .  S
C1115      C1116   1.400       .  A
C1115      H1124   1.084       .  S
C1116      C1122   1.405       .  A
C1116      C1117   1.416       .  A
C1117      C1119   1.398       .  A
C1117      C1118   1.403       .  A
C1118      H1125   1.084       .  S
C1119      C1120   1.394       .  A
C1119      H1126   1.084       .  S
C1120      C1121   1.409       .  A
C1120      H1127   1.083       .  S
C1121      C1122   1.404       .  A
C1122      H1128   1.084       .  S
C1129      C1130   1.406       .  A
C1129      C1134   1.411       .  A
C1130      C1131   1.398       .  A
C1130      H1139   1.083       .  S
C1131      C1132   1.402       .  A
C1131      H1140   1.084       .  S
C1132      C1138   1.405       .  A
C1132      C1133   1.412       .  A
C1133      C1135   1.405       .  A
C1133      C1134   1.407       .  A
C1134      H1141   1.084       .  S
C1135      C1136   1.401       .  A
C1135      H1142   1.084       .  S
C1136      C1137   1.405       .  A
C1136      H1143   1.083       .  S
C1137      C1138   1.410       .  A
C1138      H1144   1.085       .  S
C1145      C1146   1.405       .  A
C1145      C1150   1.409       .  A
C1146      C1147   1.390       .  A
C1146      H1155   1.083       .  S
C1147      C1148   1.398       .  A
C1147      H1156   1.084       .  S
C1148      C1154   1.396       .  A
C1148      C1149   1.414       .  A
C1149      C1151   1.406       .  A
C1149      C1150   1.409       .  A
C1150      H1157   1.084       .  S
C1151      C1152   1.404       .  A
C1151      H1158   1.084       .  S
C1152      C1153   1.405       .  A
C1152      H1159   1.083       .  S
C1153      C1154   1.404       .  A
C1154      H1160   1.085       .  S
C1161      C1162   1.404       .  A
C1161      C1166   1.407       .  A
C1162      C1163   1.397       .  A
C1162      H1171   1.083       .  S
C1163      C1164   1.403       .  A
C1163      H1172   1.084       .  S
C1164      C1170   1.402       .  A
C1164      C1165   1.412       .  A
C1165      C1167   1.403       .  A
C1165      C1166   1.404       .  A
C1166      H1173   1.085       .  S
C1167      C1168   1.400       .  A
C1167      H1174   1.084       .  S
C1168      C1169   1.406       .  A
C1168      H1175   1.083       .  S
C1169      C1170   1.409       .  A
C1170      H1176   1.084       .  S
C1177      C1178   1.405       .  A
C1177      C1182   1.409       .  A
C1178      C1179   1.399       .  A
C1178      H1187   1.083       .  S
C1179      C1180   1.403       .  A
C1179      H1188   1.084       .  S
C1180      C1186   1.405       .  A
C1180      C1181   1.412       .  A
C1181      C1183   1.403       .  A
C1181      C1182   1.404       .  A
C1182      H1189   1.085   1_655  S
C1183      C1184   1.398       .  A
C1183      H1190   1.084       .  S
C1184      C1185   1.406       .  A
C1184      H1191   1.083       .  S
C1185      C1186   1.410       .  A
C1186      H1192   1.084       .  S
C1193      C1194   1.403       .  A
C1193      C1198   1.404       .  A
C1194      C1195   1.402       .  A
C1195      C1196   1.405       .  A
C1195      H1204   1.083       .  S
C1196      C1202   1.407       .  A
C1196      C1197   1.414       .  A
C1197      C1199   1.399       .  A
C1197      C1198   1.398       .  A
C1198      H1205   1.085       .  S
C1199      C1200   1.392       .  A
C1199      H1206   1.084       .  S
C1200      C1201   1.406       .  A
C1200      H1207   1.083       .  S
C1201      C1202   1.407       .  A
C1202      H1208   1.084       .  S
C1209      C1210   1.405       .  A
C1209      C1214   1.401       .  A
C1210      C1211   1.402       .  A
C1210      H1219   1.083       .  S
C1211      C1212   1.405       .  A
C1211      H1220   1.083       .  S
C1212      C1218   1.410       .  A
C1212      C1213   1.416       .  A
C1213      C1215   1.397       .  A
C1213      C1214   1.399       .  A
C1214      H1221   1.085       .  S
C1215      C1216   1.390       .  A
C1215      H1222   1.084       .  S
C1216      C1217   1.406       .  A
C1216      H1223   1.084       .  S
C1217      C1218   1.407       .  A
C1218      H1224   1.084       .  S
C1225      C1226   1.410       .  A
C1225      C1230   1.407       .  A
C1226      C1227   1.392       .  A
C1226      H1235   1.083       .  S
C1227      C1228   1.396       .  A
C1227      H1236   1.084       .  S
C1228      C1234   1.402       .  A
C1228      C1229   1.416       .  A
C1229      C1231   1.401       .  A
C1229      C1230   1.408       .  A
C1230      H1237   1.084       .  S
C1231      C1232   1.398       .  A
C1231      H1238   1.084       .  S
C1232      C1233   1.408       .  A
C1232      H1239   1.083       .  S
C1233      C1234   1.401       .  A
C1234      H1240   1.085       .  S
